<?xml version="1.0" ?>
<routes>
    <include href="vehicle_types.add.xml"/>
    <flow id="flow_0" type="motorcycle" begin="0" end="3600" from="e_n_to_2_0" to="e_1_2_to_e" vehsPerHour="14" departLane="best" departSpeed="max" departPos="base"/>
    <flow id="flow_1" type="car" begin="0" end="3600" from="e_n_to_2_0" to="e_1_2_to_e" vehsPerHour="4" departLane="best" departSpeed="max" departPos="base"/>
    <flow id="flow_2" type="bus" begin="0" end="3600" from="e_n_to_2_0" to="e_1_2_to_e" vehsPerHour="1" departLane="best" departSpeed="max" departPos="base"/>
    <flow id="flow_3" type="truck" begin="0" end="3600" from="e_n_to_2_0" to="e_1_2_to_e" vehsPerHour="1" departLane="best" departSpeed="max" departPos="base"/>
    <flow id="flow_4" type="motorcycle" begin="0" end="3600" from="e_n_to_2_0" to="e_0_0_to_s" vehsPerHour="45" departLane="best" departSpeed="max" departPos="base"/>
    <flow id="flow_5" type="car" begin="0" end="3600" from="e_n_to_2_0" to="e_0_0_to_s" vehsPerHour="13" departLane="best" departSpeed="max" departPos="base"/>
    <flow id="flow_6" type="bus" begin="0" end="3600" from="e_n_to_2_0" to="e_0_0_to_s" vehsPerHour="3" departLane="best" departSpeed="max" departPos="base"/>
    <flow id="flow_7" type="truck" begin="0" end="3600" from="e_n_to_2_0" to="e_0_0_to_s" vehsPerHour="3" departLane="best" departSpeed="max" departPos="base"/>
    <flow id="flow_8" type="motorcycle" begin="0" end="3600" from="e_n_to_2_0" to="e_1_0_to_w" vehsPerHour="10" departLane="best" departSpeed="max" departPos="base"/>
    <flow id="flow_9" type="car" begin="0" end="3600" from="e_n_to_2_0" to="e_1_0_to_w" vehsPerHour="3" departLane="best" departSpeed="max" departPos="base"/>
    <flow id="flow_10" type="motorcycle" begin="0" end="3600" from="e_n_to_2_1" to="e_1_2_to_e" vehsPerHour="14" departLane="best" departSpeed="max" departPos="base"/>
    <flow id="flow_11" type="car" begin="0" end="3600" from="e_n_to_2_1" to="e_1_2_to_e" vehsPerHour="4" departLane="best" departSpeed="max" departPos="base"/>
    <flow id="flow_12" type="bus" begin="0" end="3600" from="e_n_to_2_1" to="e_1_2_to_e" vehsPerHour="1" departLane="best" departSpeed="max" departPos="base"/>
    <flow id="flow_13" type="truck" begin="0" end="3600" from="e_n_to_2_1" to="e_1_2_to_e" vehsPerHour="1" departLane="best" departSpeed="max" departPos="base"/>
    <flow id="flow_14" type="motorcycle" begin="0" end="3600" from="e_n_to_2_1" to="e_0_1_to_s" vehsPerHour="45" departLane="best" departSpeed="max" departPos="base"/>
    <flow id="flow_15" type="car" begin="0" end="3600" from="e_n_to_2_1" to="e_0_1_to_s" vehsPerHour="13" departLane="best" departSpeed="max" departPos="base"/>
    <flow id="flow_16" type="bus" begin="0" end="3600" from="e_n_to_2_1" to="e_0_1_to_s" vehsPerHour="3" departLane="best" departSpeed="max" departPos="base"/>
    <flow id="flow_17" type="truck" begin="0" end="3600" from="e_n_to_2_1" to="e_0_1_to_s" vehsPerHour="3" departLane="best" departSpeed="max" departPos="base"/>
    <flow id="flow_18" type="motorcycle" begin="0" end="3600" from="e_n_to_2_1" to="e_1_0_to_w" vehsPerHour="10" departLane="best" departSpeed="max" departPos="base"/>
    <flow id="flow_19" type="car" begin="0" end="3600" from="e_n_to_2_1" to="e_1_0_to_w" vehsPerHour="3" departLane="best" departSpeed="max" departPos="base"/>
    <flow id="flow_20" type="motorcycle" begin="0" end="3600" from="e_n_to_2_2" to="e_1_2_to_e" vehsPerHour="14" departLane="best" departSpeed="max" departPos="base"/>
    <flow id="flow_21" type="car" begin="0" end="3600" from="e_n_to_2_2" to="e_1_2_to_e" vehsPerHour="4" departLane="best" departSpeed="max" departPos="base"/>
    <flow id="flow_22" type="bus" begin="0" end="3600" from="e_n_to_2_2" to="e_1_2_to_e" vehsPerHour="1" departLane="best" departSpeed="max" departPos="base"/>
    <flow id="flow_23" type="truck" begin="0" end="3600" from="e_n_to_2_2" to="e_1_2_to_e" vehsPerHour="1" departLane="best" departSpeed="max" departPos="base"/>
    <flow id="flow_24" type="motorcycle" begin="0" end="3600" from="e_n_to_2_2" to="e_0_2_to_s" vehsPerHour="45" departLane="best" departSpeed="max" departPos="base"/>
    <flow id="flow_25" type="car" begin="0" end="3600" from="e_n_to_2_2" to="e_0_2_to_s" vehsPerHour="13" departLane="best" departSpeed="max" departPos="base"/>
    <flow id="flow_26" type="bus" begin="0" end="3600" from="e_n_to_2_2" to="e_0_2_to_s" vehsPerHour="3" departLane="best" departSpeed="max" departPos="base"/>
    <flow id="flow_27" type="truck" begin="0" end="3600" from="e_n_to_2_2" to="e_0_2_to_s" vehsPerHour="3" departLane="best" departSpeed="max" departPos="base"/>
    <flow id="flow_28" type="motorcycle" begin="0" end="3600" from="e_n_to_2_2" to="e_1_0_to_w" vehsPerHour="10" departLane="best" departSpeed="max" departPos="base"/>
    <flow id="flow_29" type="car" begin="0" end="3600" from="e_n_to_2_2" to="e_1_0_to_w" vehsPerHour="3" departLane="best" departSpeed="max" departPos="base"/>
    <flow id="flow_30" type="motorcycle" begin="0" end="3600" from="e_s_to_0_0" to="e_1_0_to_w" vehsPerHour="14" departLane="best" departSpeed="max" departPos="base"/>
    <flow id="flow_31" type="car" begin="0" end="3600" from="e_s_to_0_0" to="e_1_0_to_w" vehsPerHour="4" departLane="best" departSpeed="max" departPos="base"/>
    <flow id="flow_32" type="bus" begin="0" end="3600" from="e_s_to_0_0" to="e_1_0_to_w" vehsPerHour="1" departLane="best" departSpeed="max" departPos="base"/>
    <flow id="flow_33" type="truck" begin="0" end="3600" from="e_s_to_0_0" to="e_1_0_to_w" vehsPerHour="1" departLane="best" departSpeed="max" departPos="base"/>
    <flow id="flow_34" type="motorcycle" begin="0" end="3600" from="e_s_to_0_0" to="e_2_0_to_n" vehsPerHour="45" departLane="best" departSpeed="max" departPos="base"/>
    <flow id="flow_35" type="car" begin="0" end="3600" from="e_s_to_0_0" to="e_2_0_to_n" vehsPerHour="13" departLane="best" departSpeed="max" departPos="base"/>
    <flow id="flow_36" type="bus" begin="0" end="3600" from="e_s_to_0_0" to="e_2_0_to_n" vehsPerHour="3" departLane="best" departSpeed="max" departPos="base"/>
    <flow id="flow_37" type="truck" begin="0" end="3600" from="e_s_to_0_0" to="e_2_0_to_n" vehsPerHour="3" departLane="best" departSpeed="max" departPos="base"/>
    <flow id="flow_38" type="motorcycle" begin="0" end="3600" from="e_s_to_0_0" to="e_1_2_to_e" vehsPerHour="10" departLane="best" departSpeed="max" departPos="base"/>
    <flow id="flow_39" type="car" begin="0" end="3600" from="e_s_to_0_0" to="e_1_2_to_e" vehsPerHour="3" departLane="best" departSpeed="max" departPos="base"/>
    <flow id="flow_40" type="motorcycle" begin="0" end="3600" from="e_s_to_0_1" to="e_1_0_to_w" vehsPerHour="14" departLane="best" departSpeed="max" departPos="base"/>
    <flow id="flow_41" type="car" begin="0" end="3600" from="e_s_to_0_1" to="e_1_0_to_w" vehsPerHour="4" departLane="best" departSpeed="max" departPos="base"/>
    <flow id="flow_42" type="bus" begin="0" end="3600" from="e_s_to_0_1" to="e_1_0_to_w" vehsPerHour="1" departLane="best" departSpeed="max" departPos="base"/>
    <flow id="flow_43" type="truck" begin="0" end="3600" from="e_s_to_0_1" to="e_1_0_to_w" vehsPerHour="1" departLane="best" departSpeed="max" departPos="base"/>
    <flow id="flow_44" type="motorcycle" begin="0" end="3600" from="e_s_to_0_1" to="e_2_1_to_n" vehsPerHour="45" departLane="best" departSpeed="max" departPos="base"/>
    <flow id="flow_45" type="car" begin="0" end="3600" from="e_s_to_0_1" to="e_2_1_to_n" vehsPerHour="13" departLane="best" departSpeed="max" departPos="base"/>
    <flow id="flow_46" type="bus" begin="0" end="3600" from="e_s_to_0_1" to="e_2_1_to_n" vehsPerHour="3" departLane="best" departSpeed="max" departPos="base"/>
    <flow id="flow_47" type="truck" begin="0" end="3600" from="e_s_to_0_1" to="e_2_1_to_n" vehsPerHour="3" departLane="best" departSpeed="max" departPos="base"/>
    <flow id="flow_48" type="motorcycle" begin="0" end="3600" from="e_s_to_0_1" to="e_1_2_to_e" vehsPerHour="10" departLane="best" departSpeed="max" departPos="base"/>
    <flow id="flow_49" type="car" begin="0" end="3600" from="e_s_to_0_1" to="e_1_2_to_e" vehsPerHour="3" departLane="best" departSpeed="max" departPos="base"/>
    <flow id="flow_50" type="motorcycle" begin="0" end="3600" from="e_s_to_0_2" to="e_1_0_to_w" vehsPerHour="14" departLane="best" departSpeed="max" departPos="base"/>
    <flow id="flow_51" type="car" begin="0" end="3600" from="e_s_to_0_2" to="e_1_0_to_w" vehsPerHour="4" departLane="best" departSpeed="max" departPos="base"/>
    <flow id="flow_52" type="bus" begin="0" end="3600" from="e_s_to_0_2" to="e_1_0_to_w" vehsPerHour="1" departLane="best" departSpeed="max" departPos="base"/>
    <flow id="flow_53" type="truck" begin="0" end="3600" from="e_s_to_0_2" to="e_1_0_to_w" vehsPerHour="1" departLane="best" departSpeed="max" departPos="base"/>
    <flow id="flow_54" type="motorcycle" begin="0" end="3600" from="e_s_to_0_2" to="e_2_2_to_n" vehsPerHour="45" departLane="best" departSpeed="max" departPos="base"/>
    <flow id="flow_55" type="car" begin="0" end="3600" from="e_s_to_0_2" to="e_2_2_to_n" vehsPerHour="13" departLane="best" departSpeed="max" departPos="base"/>
    <flow id="flow_56" type="bus" begin="0" end="3600" from="e_s_to_0_2" to="e_2_2_to_n" vehsPerHour="3" departLane="best" departSpeed="max" departPos="base"/>
    <flow id="flow_57" type="truck" begin="0" end="3600" from="e_s_to_0_2" to="e_2_2_to_n" vehsPerHour="3" departLane="best" departSpeed="max" departPos="base"/>
    <flow id="flow_58" type="motorcycle" begin="0" end="3600" from="e_s_to_0_2" to="e_1_2_to_e" vehsPerHour="10" departLane="best" departSpeed="max" departPos="base"/>
    <flow id="flow_59" type="car" begin="0" end="3600" from="e_s_to_0_2" to="e_1_2_to_e" vehsPerHour="3" departLane="best" departSpeed="max" departPos="base"/>
    <flow id="flow_60" type="motorcycle" begin="0" end="3600" from="e_e_to_0_2" to="e_2_1_to_n" vehsPerHour="14" departLane="best" departSpeed="max" departPos="base"/>
    <flow id="flow_61" type="car" begin="0" end="3600" from="e_e_to_0_2" to="e_2_1_to_n" vehsPerHour="4" departLane="best" departSpeed="max" departPos="base"/>
    <flow id="flow_62" type="bus" begin="0" end="3600" from="e_e_to_0_2" to="e_2_1_to_n" vehsPerHour="1" departLane="best" departSpeed="max" departPos="base"/>
    <flow id="flow_63" type="truck" begin="0" end="3600" from="e_e_to_0_2" to="e_2_1_to_n" vehsPerHour="1" departLane="best" departSpeed="max" departPos="base"/>
    <flow id="flow_64" type="motorcycle" begin="0" end="3600" from="e_e_to_0_2" to="e_0_0_to_w" vehsPerHour="45" departLane="best" departSpeed="max" departPos="base"/>
    <flow id="flow_65" type="car" begin="0" end="3600" from="e_e_to_0_2" to="e_0_0_to_w" vehsPerHour="13" departLane="best" departSpeed="max" departPos="base"/>
    <flow id="flow_66" type="bus" begin="0" end="3600" from="e_e_to_0_2" to="e_0_0_to_w" vehsPerHour="3" departLane="best" departSpeed="max" departPos="base"/>
    <flow id="flow_67" type="truck" begin="0" end="3600" from="e_e_to_0_2" to="e_0_0_to_w" vehsPerHour="3" departLane="best" departSpeed="max" departPos="base"/>
    <flow id="flow_68" type="motorcycle" begin="0" end="3600" from="e_e_to_0_2" to="e_0_1_to_s" vehsPerHour="10" departLane="best" departSpeed="max" departPos="base"/>
    <flow id="flow_69" type="car" begin="0" end="3600" from="e_e_to_0_2" to="e_0_1_to_s" vehsPerHour="3" departLane="best" departSpeed="max" departPos="base"/>
    <flow id="flow_70" type="motorcycle" begin="0" end="3600" from="e_e_to_1_2" to="e_2_1_to_n" vehsPerHour="14" departLane="best" departSpeed="max" departPos="base"/>
    <flow id="flow_71" type="car" begin="0" end="3600" from="e_e_to_1_2" to="e_2_1_to_n" vehsPerHour="4" departLane="best" departSpeed="max" departPos="base"/>
    <flow id="flow_72" type="bus" begin="0" end="3600" from="e_e_to_1_2" to="e_2_1_to_n" vehsPerHour="1" departLane="best" departSpeed="max" departPos="base"/>
    <flow id="flow_73" type="truck" begin="0" end="3600" from="e_e_to_1_2" to="e_2_1_to_n" vehsPerHour="1" departLane="best" departSpeed="max" departPos="base"/>
    <flow id="flow_74" type="motorcycle" begin="0" end="3600" from="e_e_to_1_2" to="e_1_0_to_w" vehsPerHour="45" departLane="best" departSpeed="max" departPos="base"/>
    <flow id="flow_75" type="car" begin="0" end="3600" from="e_e_to_1_2" to="e_1_0_to_w" vehsPerHour="13" departLane="best" departSpeed="max" departPos="base"/>
    <flow id="flow_76" type="bus" begin="0" end="3600" from="e_e_to_1_2" to="e_1_0_to_w" vehsPerHour="3" departLane="best" departSpeed="max" departPos="base"/>
    <flow id="flow_77" type="truck" begin="0" end="3600" from="e_e_to_1_2" to="e_1_0_to_w" vehsPerHour="3" departLane="best" departSpeed="max" departPos="base"/>
    <flow id="flow_78" type="motorcycle" begin="0" end="3600" from="e_e_to_1_2" to="e_0_1_to_s" vehsPerHour="10" departLane="best" departSpeed="max" departPos="base"/>
    <flow id="flow_79" type="car" begin="0" end="3600" from="e_e_to_1_2" to="e_0_1_to_s" vehsPerHour="3" departLane="best" departSpeed="max" departPos="base"/>
    <flow id="flow_80" type="motorcycle" begin="0" end="3600" from="e_e_to_2_2" to="e_2_1_to_n" vehsPerHour="14" departLane="best" departSpeed="max" departPos="base"/>
    <flow id="flow_81" type="car" begin="0" end="3600" from="e_e_to_2_2" to="e_2_1_to_n" vehsPerHour="4" departLane="best" departSpeed="max" departPos="base"/>
    <flow id="flow_82" type="bus" begin="0" end="3600" from="e_e_to_2_2" to="e_2_1_to_n" vehsPerHour="1" departLane="best" departSpeed="max" departPos="base"/>
    <flow id="flow_83" type="truck" begin="0" end="3600" from="e_e_to_2_2" to="e_2_1_to_n" vehsPerHour="1" departLane="best" departSpeed="max" departPos="base"/>
    <flow id="flow_84" type="motorcycle" begin="0" end="3600" from="e_e_to_2_2" to="e_2_0_to_w" vehsPerHour="45" departLane="best" departSpeed="max" departPos="base"/>
    <flow id="flow_85" type="car" begin="0" end="3600" from="e_e_to_2_2" to="e_2_0_to_w" vehsPerHour="13" departLane="best" departSpeed="max" departPos="base"/>
    <flow id="flow_86" type="bus" begin="0" end="3600" from="e_e_to_2_2" to="e_2_0_to_w" vehsPerHour="3" departLane="best" departSpeed="max" departPos="base"/>
    <flow id="flow_87" type="truck" begin="0" end="3600" from="e_e_to_2_2" to="e_2_0_to_w" vehsPerHour="3" departLane="best" departSpeed="max" departPos="base"/>
    <flow id="flow_88" type="motorcycle" begin="0" end="3600" from="e_e_to_2_2" to="e_0_1_to_s" vehsPerHour="10" departLane="best" departSpeed="max" departPos="base"/>
    <flow id="flow_89" type="car" begin="0" end="3600" from="e_e_to_2_2" to="e_0_1_to_s" vehsPerHour="3" departLane="best" departSpeed="max" departPos="base"/>
    <flow id="flow_90" type="motorcycle" begin="0" end="3600" from="e_w_to_0_0" to="e_0_1_to_s" vehsPerHour="14" departLane="best" departSpeed="max" departPos="base"/>
    <flow id="flow_91" type="car" begin="0" end="3600" from="e_w_to_0_0" to="e_0_1_to_s" vehsPerHour="4" departLane="best" departSpeed="max" departPos="base"/>
    <flow id="flow_92" type="bus" begin="0" end="3600" from="e_w_to_0_0" to="e_0_1_to_s" vehsPerHour="1" departLane="best" departSpeed="max" departPos="base"/>
    <flow id="flow_93" type="truck" begin="0" end="3600" from="e_w_to_0_0" to="e_0_1_to_s" vehsPerHour="1" departLane="best" departSpeed="max" departPos="base"/>
    <flow id="flow_94" type="motorcycle" begin="0" end="3600" from="e_w_to_0_0" to="e_0_2_to_e" vehsPerHour="45" departLane="best" departSpeed="max" departPos="base"/>
    <flow id="flow_95" type="car" begin="0" end="3600" from="e_w_to_0_0" to="e_0_2_to_e" vehsPerHour="13" departLane="best" departSpeed="max" departPos="base"/>
    <flow id="flow_96" type="bus" begin="0" end="3600" from="e_w_to_0_0" to="e_0_2_to_e" vehsPerHour="3" departLane="best" departSpeed="max" departPos="base"/>
    <flow id="flow_97" type="truck" begin="0" end="3600" from="e_w_to_0_0" to="e_0_2_to_e" vehsPerHour="3" departLane="best" departSpeed="max" departPos="base"/>
    <flow id="flow_98" type="motorcycle" begin="0" end="3600" from="e_w_to_0_0" to="e_2_1_to_n" vehsPerHour="10" departLane="best" departSpeed="max" departPos="base"/>
    <flow id="flow_99" type="car" begin="0" end="3600" from="e_w_to_0_0" to="e_2_1_to_n" vehsPerHour="3" departLane="best" departSpeed="max" departPos="base"/>
    <flow id="flow_100" type="motorcycle" begin="0" end="3600" from="e_w_to_1_0" to="e_0_1_to_s" vehsPerHour="14" departLane="best" departSpeed="max" departPos="base"/>
    <flow id="flow_101" type="car" begin="0" end="3600" from="e_w_to_1_0" to="e_0_1_to_s" vehsPerHour="4" departLane="best" departSpeed="max" departPos="base"/>
    <flow id="flow_102" type="bus" begin="0" end="3600" from="e_w_to_1_0" to="e_0_1_to_s" vehsPerHour="1" departLane="best" departSpeed="max" departPos="base"/>
    <flow id="flow_103" type="truck" begin="0" end="3600" from="e_w_to_1_0" to="e_0_1_to_s" vehsPerHour="1" departLane="best" departSpeed="max" departPos="base"/>
    <flow id="flow_104" type="motorcycle" begin="0" end="3600" from="e_w_to_1_0" to="e_1_2_to_e" vehsPerHour="45" departLane="best" departSpeed="max" departPos="base"/>
    <flow id="flow_105" type="car" begin="0" end="3600" from="e_w_to_1_0" to="e_1_2_to_e" vehsPerHour="13" departLane="best" departSpeed="max" departPos="base"/>
    <flow id="flow_106" type="bus" begin="0" end="3600" from="e_w_to_1_0" to="e_1_2_to_e" vehsPerHour="3" departLane="best" departSpeed="max" departPos="base"/>
    <flow id="flow_107" type="truck" begin="0" end="3600" from="e_w_to_1_0" to="e_1_2_to_e" vehsPerHour="3" departLane="best" departSpeed="max" departPos="base"/>
    <flow id="flow_108" type="motorcycle" begin="0" end="3600" from="e_w_to_1_0" to="e_2_1_to_n" vehsPerHour="10" departLane="best" departSpeed="max" departPos="base"/>
    <flow id="flow_109" type="car" begin="0" end="3600" from="e_w_to_1_0" to="e_2_1_to_n" vehsPerHour="3" departLane="best" departSpeed="max" departPos="base"/>
    <flow id="flow_110" type="motorcycle" begin="0" end="3600" from="e_w_to_2_0" to="e_0_1_to_s" vehsPerHour="14" departLane="best" departSpeed="max" departPos="base"/>
    <flow id="flow_111" type="car" begin="0" end="3600" from="e_w_to_2_0" to="e_0_1_to_s" vehsPerHour="4" departLane="best" departSpeed="max" departPos="base"/>
    <flow id="flow_112" type="bus" begin="0" end="3600" from="e_w_to_2_0" to="e_0_1_to_s" vehsPerHour="1" departLane="best" departSpeed="max" departPos="base"/>
    <flow id="flow_113" type="truck" begin="0" end="3600" from="e_w_to_2_0" to="e_0_1_to_s" vehsPerHour="1" departLane="best" departSpeed="max" departPos="base"/>
    <flow id="flow_114" type="motorcycle" begin="0" end="3600" from="e_w_to_2_0" to="e_2_2_to_e" vehsPerHour="45" departLane="best" departSpeed="max" departPos="base"/>
    <flow id="flow_115" type="car" begin="0" end="3600" from="e_w_to_2_0" to="e_2_2_to_e" vehsPerHour="13" departLane="best" departSpeed="max" departPos="base"/>
    <flow id="flow_116" type="bus" begin="0" end="3600" from="e_w_to_2_0" to="e_2_2_to_e" vehsPerHour="3" departLane="best" departSpeed="max" departPos="base"/>
    <flow id="flow_117" type="truck" begin="0" end="3600" from="e_w_to_2_0" to="e_2_2_to_e" vehsPerHour="3" departLane="best" departSpeed="max" departPos="base"/>
    <flow id="flow_118" type="motorcycle" begin="0" end="3600" from="e_w_to_2_0" to="e_2_1_to_n" vehsPerHour="10" departLane="best" departSpeed="max" departPos="base"/>
    <flow id="flow_119" type="car" begin="0" end="3600" from="e_w_to_2_0" to="e_2_1_to_n" vehsPerHour="3" departLane="best" departSpeed="max" departPos="base"/>
</routes>