<?xml version="1.0" ?>
<nodes>
    <node id="n_0_0" x="0" y="0" type="traffic_light"/>
    <node id="n_0_1" x="200" y="0" type="traffic_light"/>
    <node id="n_0_2" x="400" y="0" type="traffic_light"/>
    <node id="n_1_0" x="0" y="200" type="traffic_light"/>
    <node id="n_1_1" x="200" y="200" type="traffic_light"/>
    <node id="n_1_2" x="400" y="200" type="traffic_light"/>
    <node id="n_2_0" x="0" y="400" type="traffic_light"/>
    <node id="n_2_1" x="200" y="400" type="traffic_light"/>
    <node id="n_2_2" x="400" y="400" type="traffic_light"/>
    <node id="n_north_0" x="0" y="600" type="priority"/>
    <node id="n_north_1" x="200" y="600" type="priority"/>
    <node id="n_north_2" x="400" y="600" type="priority"/>
    <node id="n_south_0" x="0" y="-200" type="priority"/>
    <node id="n_south_1" x="200" y="-200" type="priority"/>
    <node id="n_south_2" x="400" y="-200" type="priority"/>
    <node id="n_east_0" x="600" y="0" type="priority"/>
    <node id="n_east_1" x="600" y="200" type="priority"/>
    <node id="n_east_2" x="600" y="400" type="priority"/>
    <node id="n_west_0" x="-200" y="0" type="priority"/>
    <node id="n_west_1" x="-200" y="200" type="priority"/>
    <node id="n_west_2" x="-200" y="400" type="priority"/>
</nodes>