<?xml version="1.0" ?>
<routes>
    <include href="vehicle_types.add.xml"/>
    <flow id="flow_0" type="motorcycle" begin="0" end="3600" from="e_n_to_0_0" to="e_0_0_to_e" vehsPerHour="140" departLane="best" departSpeed="max" departPos="base"/>
    <flow id="flow_1" type="car" begin="0" end="3600" from="e_n_to_0_0" to="e_0_0_to_e" vehsPerHour="40" departLane="best" departSpeed="max" departPos="base"/>
    <flow id="flow_2" type="bus" begin="0" end="3600" from="e_n_to_0_0" to="e_0_0_to_e" vehsPerHour="10" departLane="best" departSpeed="max" departPos="base"/>
    <flow id="flow_3" type="truck" begin="0" end="3600" from="e_n_to_0_0" to="e_0_0_to_e" vehsPerHour="10" departLane="best" departSpeed="max" departPos="base"/>
    <flow id="flow_4" type="motorcycle" begin="0" end="3600" from="e_n_to_0_0" to="e_0_0_to_s" vehsPerHour="454" departLane="best" departSpeed="max" departPos="base"/>
    <flow id="flow_5" type="car" begin="0" end="3600" from="e_n_to_0_0" to="e_0_0_to_s" vehsPerHour="130" departLane="best" departSpeed="max" departPos="base"/>
    <flow id="flow_6" type="bus" begin="0" end="3600" from="e_n_to_0_0" to="e_0_0_to_s" vehsPerHour="32" departLane="best" departSpeed="max" departPos="base"/>
    <flow id="flow_7" type="truck" begin="0" end="3600" from="e_n_to_0_0" to="e_0_0_to_s" vehsPerHour="32" departLane="best" departSpeed="max" departPos="base"/>
    <flow id="flow_8" type="motorcycle" begin="0" end="3600" from="e_n_to_0_0" to="e_0_0_to_w" vehsPerHour="105" departLane="best" departSpeed="max" departPos="base"/>
    <flow id="flow_9" type="car" begin="0" end="3600" from="e_n_to_0_0" to="e_0_0_to_w" vehsPerHour="30" departLane="best" departSpeed="max" departPos="base"/>
    <flow id="flow_10" type="bus" begin="0" end="3600" from="e_n_to_0_0" to="e_0_0_to_w" vehsPerHour="7" departLane="best" departSpeed="max" departPos="base"/>
    <flow id="flow_11" type="truck" begin="0" end="3600" from="e_n_to_0_0" to="e_0_0_to_w" vehsPerHour="7" departLane="best" departSpeed="max" departPos="base"/>
    <flow id="flow_12" type="motorcycle" begin="0" end="3600" from="e_s_to_0_0" to="e_0_0_to_w" vehsPerHour="140" departLane="best" departSpeed="max" departPos="base"/>
    <flow id="flow_13" type="car" begin="0" end="3600" from="e_s_to_0_0" to="e_0_0_to_w" vehsPerHour="40" departLane="best" departSpeed="max" departPos="base"/>
    <flow id="flow_14" type="bus" begin="0" end="3600" from="e_s_to_0_0" to="e_0_0_to_w" vehsPerHour="10" departLane="best" departSpeed="max" departPos="base"/>
    <flow id="flow_15" type="truck" begin="0" end="3600" from="e_s_to_0_0" to="e_0_0_to_w" vehsPerHour="10" departLane="best" departSpeed="max" departPos="base"/>
    <flow id="flow_16" type="motorcycle" begin="0" end="3600" from="e_s_to_0_0" to="e_0_0_to_n" vehsPerHour="454" departLane="best" departSpeed="max" departPos="base"/>
    <flow id="flow_17" type="car" begin="0" end="3600" from="e_s_to_0_0" to="e_0_0_to_n" vehsPerHour="130" departLane="best" departSpeed="max" departPos="base"/>
    <flow id="flow_18" type="bus" begin="0" end="3600" from="e_s_to_0_0" to="e_0_0_to_n" vehsPerHour="32" departLane="best" departSpeed="max" departPos="base"/>
    <flow id="flow_19" type="truck" begin="0" end="3600" from="e_s_to_0_0" to="e_0_0_to_n" vehsPerHour="32" departLane="best" departSpeed="max" departPos="base"/>
    <flow id="flow_20" type="motorcycle" begin="0" end="3600" from="e_s_to_0_0" to="e_0_0_to_e" vehsPerHour="105" departLane="best" departSpeed="max" departPos="base"/>
    <flow id="flow_21" type="car" begin="0" end="3600" from="e_s_to_0_0" to="e_0_0_to_e" vehsPerHour="30" departLane="best" departSpeed="max" departPos="base"/>
    <flow id="flow_22" type="bus" begin="0" end="3600" from="e_s_to_0_0" to="e_0_0_to_e" vehsPerHour="7" departLane="best" departSpeed="max" departPos="base"/>
    <flow id="flow_23" type="truck" begin="0" end="3600" from="e_s_to_0_0" to="e_0_0_to_e" vehsPerHour="7" departLane="best" departSpeed="max" departPos="base"/>
    <flow id="flow_24" type="motorcycle" begin="0" end="3600" from="e_e_to_0_0" to="e_0_0_to_n" vehsPerHour="140" departLane="best" departSpeed="max" departPos="base"/>
    <flow id="flow_25" type="car" begin="0" end="3600" from="e_e_to_0_0" to="e_0_0_to_n" vehsPerHour="40" departLane="best" departSpeed="max" departPos="base"/>
    <flow id="flow_26" type="bus" begin="0" end="3600" from="e_e_to_0_0" to="e_0_0_to_n" vehsPerHour="10" departLane="best" departSpeed="max" departPos="base"/>
    <flow id="flow_27" type="truck" begin="0" end="3600" from="e_e_to_0_0" to="e_0_0_to_n" vehsPerHour="10" departLane="best" departSpeed="max" departPos="base"/>
    <flow id="flow_28" type="motorcycle" begin="0" end="3600" from="e_e_to_0_0" to="e_0_0_to_w" vehsPerHour="454" departLane="best" departSpeed="max" departPos="base"/>
    <flow id="flow_29" type="car" begin="0" end="3600" from="e_e_to_0_0" to="e_0_0_to_w" vehsPerHour="130" departLane="best" departSpeed="max" departPos="base"/>
    <flow id="flow_30" type="bus" begin="0" end="3600" from="e_e_to_0_0" to="e_0_0_to_w" vehsPerHour="32" departLane="best" departSpeed="max" departPos="base"/>
    <flow id="flow_31" type="truck" begin="0" end="3600" from="e_e_to_0_0" to="e_0_0_to_w" vehsPerHour="32" departLane="best" departSpeed="max" departPos="base"/>
    <flow id="flow_32" type="motorcycle" begin="0" end="3600" from="e_e_to_0_0" to="e_0_0_to_s" vehsPerHour="105" departLane="best" departSpeed="max" departPos="base"/>
    <flow id="flow_33" type="car" begin="0" end="3600" from="e_e_to_0_0" to="e_0_0_to_s" vehsPerHour="30" departLane="best" departSpeed="max" departPos="base"/>
    <flow id="flow_34" type="bus" begin="0" end="3600" from="e_e_to_0_0" to="e_0_0_to_s" vehsPerHour="7" departLane="best" departSpeed="max" departPos="base"/>
    <flow id="flow_35" type="truck" begin="0" end="3600" from="e_e_to_0_0" to="e_0_0_to_s" vehsPerHour="7" departLane="best" departSpeed="max" departPos="base"/>
    <flow id="flow_36" type="motorcycle" begin="0" end="3600" from="e_w_to_0_0" to="e_0_0_to_s" vehsPerHour="140" departLane="best" departSpeed="max" departPos="base"/>
    <flow id="flow_37" type="car" begin="0" end="3600" from="e_w_to_0_0" to="e_0_0_to_s" vehsPerHour="40" departLane="best" departSpeed="max" departPos="base"/>
    <flow id="flow_38" type="bus" begin="0" end="3600" from="e_w_to_0_0" to="e_0_0_to_s" vehsPerHour="10" departLane="best" departSpeed="max" departPos="base"/>
    <flow id="flow_39" type="truck" begin="0" end="3600" from="e_w_to_0_0" to="e_0_0_to_s" vehsPerHour="10" departLane="best" departSpeed="max" departPos="base"/>
    <flow id="flow_40" type="motorcycle" begin="0" end="3600" from="e_w_to_0_0" to="e_0_0_to_e" vehsPerHour="454" departLane="best" departSpeed="max" departPos="base"/>
    <flow id="flow_41" type="car" begin="0" end="3600" from="e_w_to_0_0" to="e_0_0_to_e" vehsPerHour="130" departLane="best" departSpeed="max" departPos="base"/>
    <flow id="flow_42" type="bus" begin="0" end="3600" from="e_w_to_0_0" to="e_0_0_to_e" vehsPerHour="32" departLane="best" departSpeed="max" departPos="base"/>
    <flow id="flow_43" type="truck" begin="0" end="3600" from="e_w_to_0_0" to="e_0_0_to_e" vehsPerHour="32" departLane="best" departSpeed="max" departPos="base"/>
    <flow id="flow_44" type="motorcycle" begin="0" end="3600" from="e_w_to_0_0" to="e_0_0_to_n" vehsPerHour="105" departLane="best" departSpeed="max" departPos="base"/>
    <flow id="flow_45" type="car" begin="0" end="3600" from="e_w_to_0_0" to="e_0_0_to_n" vehsPerHour="30" departLane="best" departSpeed="max" departPos="base"/>
    <flow id="flow_46" type="bus" begin="0" end="3600" from="e_w_to_0_0" to="e_0_0_to_n" vehsPerHour="7" departLane="best" departSpeed="max" departPos="base"/>
    <flow id="flow_47" type="truck" begin="0" end="3600" from="e_w_to_0_0" to="e_0_0_to_n" vehsPerHour="7" departLane="best" departSpeed="max" departPos="base"/>
</routes>