<?xml version="1.0" ?>
<routes>
    <include href="vehicle_types.add.xml"/>
    <flow id="flow_0" type="motorcycle" begin="0" end="3600" from="e_n_to_0_0" to="e_0_0_to_e" vehsPerHour="56" departLane="best" departSpeed="max" departPos="base"/>
    <flow id="flow_1" type="car" begin="0" end="3600" from="e_n_to_0_0" to="e_0_0_to_e" vehsPerHour="16" departLane="best" departSpeed="max" departPos="base"/>
    <flow id="flow_2" type="bus" begin="0" end="3600" from="e_n_to_0_0" to="e_0_0_to_e" vehsPerHour="4" departLane="best" departSpeed="max" departPos="base"/>
    <flow id="flow_3" type="truck" begin="0" end="3600" from="e_n_to_0_0" to="e_0_0_to_e" vehsPerHour="4" departLane="best" departSpeed="max" departPos="base"/>
    <flow id="flow_4" type="motorcycle" begin="0" end="3600" from="e_n_to_0_0" to="e_0_0_to_s" vehsPerHour="182" departLane="best" departSpeed="max" departPos="base"/>
    <flow id="flow_5" type="car" begin="0" end="3600" from="e_n_to_0_0" to="e_0_0_to_s" vehsPerHour="52" departLane="best" departSpeed="max" departPos="base"/>
    <flow id="flow_6" type="bus" begin="0" end="3600" from="e_n_to_0_0" to="e_0_0_to_s" vehsPerHour="13" departLane="best" departSpeed="max" departPos="base"/>
    <flow id="flow_7" type="truck" begin="0" end="3600" from="e_n_to_0_0" to="e_0_0_to_s" vehsPerHour="13" departLane="best" departSpeed="max" departPos="base"/>
    <flow id="flow_8" type="motorcycle" begin="0" end="3600" from="e_n_to_0_0" to="e_0_0_to_w" vehsPerHour="42" departLane="best" departSpeed="max" departPos="base"/>
    <flow id="flow_9" type="car" begin="0" end="3600" from="e_n_to_0_0" to="e_0_0_to_w" vehsPerHour="12" departLane="best" departSpeed="max" departPos="base"/>
    <flow id="flow_10" type="bus" begin="0" end="3600" from="e_n_to_0_0" to="e_0_0_to_w" vehsPerHour="3" departLane="best" departSpeed="max" departPos="base"/>
    <flow id="flow_11" type="truck" begin="0" end="3600" from="e_n_to_0_0" to="e_0_0_to_w" vehsPerHour="3" departLane="best" departSpeed="max" departPos="base"/>
    <flow id="flow_12" type="motorcycle" begin="0" end="3600" from="e_s_to_0_0" to="e_0_0_to_w" vehsPerHour="56" departLane="best" departSpeed="max" departPos="base"/>
    <flow id="flow_13" type="car" begin="0" end="3600" from="e_s_to_0_0" to="e_0_0_to_w" vehsPerHour="16" departLane="best" departSpeed="max" departPos="base"/>
    <flow id="flow_14" type="bus" begin="0" end="3600" from="e_s_to_0_0" to="e_0_0_to_w" vehsPerHour="4" departLane="best" departSpeed="max" departPos="base"/>
    <flow id="flow_15" type="truck" begin="0" end="3600" from="e_s_to_0_0" to="e_0_0_to_w" vehsPerHour="4" departLane="best" departSpeed="max" departPos="base"/>
    <flow id="flow_16" type="motorcycle" begin="0" end="3600" from="e_s_to_0_0" to="e_0_0_to_n" vehsPerHour="182" departLane="best" departSpeed="max" departPos="base"/>
    <flow id="flow_17" type="car" begin="0" end="3600" from="e_s_to_0_0" to="e_0_0_to_n" vehsPerHour="52" departLane="best" departSpeed="max" departPos="base"/>
    <flow id="flow_18" type="bus" begin="0" end="3600" from="e_s_to_0_0" to="e_0_0_to_n" vehsPerHour="13" departLane="best" departSpeed="max" departPos="base"/>
    <flow id="flow_19" type="truck" begin="0" end="3600" from="e_s_to_0_0" to="e_0_0_to_n" vehsPerHour="13" departLane="best" departSpeed="max" departPos="base"/>
    <flow id="flow_20" type="motorcycle" begin="0" end="3600" from="e_s_to_0_0" to="e_0_0_to_e" vehsPerHour="42" departLane="best" departSpeed="max" departPos="base"/>
    <flow id="flow_21" type="car" begin="0" end="3600" from="e_s_to_0_0" to="e_0_0_to_e" vehsPerHour="12" departLane="best" departSpeed="max" departPos="base"/>
    <flow id="flow_22" type="bus" begin="0" end="3600" from="e_s_to_0_0" to="e_0_0_to_e" vehsPerHour="3" departLane="best" departSpeed="max" departPos="base"/>
    <flow id="flow_23" type="truck" begin="0" end="3600" from="e_s_to_0_0" to="e_0_0_to_e" vehsPerHour="3" departLane="best" departSpeed="max" departPos="base"/>
    <flow id="flow_24" type="motorcycle" begin="0" end="3600" from="e_e_to_0_0" to="e_0_0_to_n" vehsPerHour="125" departLane="best" departSpeed="max" departPos="base"/>
    <flow id="flow_25" type="car" begin="0" end="3600" from="e_e_to_0_0" to="e_0_0_to_n" vehsPerHour="36" departLane="best" departSpeed="max" departPos="base"/>
    <flow id="flow_26" type="bus" begin="0" end="3600" from="e_e_to_0_0" to="e_0_0_to_n" vehsPerHour="9" departLane="best" departSpeed="max" departPos="base"/>
    <flow id="flow_27" type="truck" begin="0" end="3600" from="e_e_to_0_0" to="e_0_0_to_n" vehsPerHour="9" departLane="best" departSpeed="max" departPos="base"/>
    <flow id="flow_28" type="motorcycle" begin="0" end="3600" from="e_e_to_0_0" to="e_0_0_to_w" vehsPerHour="409" departLane="best" departSpeed="max" departPos="base"/>
    <flow id="flow_29" type="car" begin="0" end="3600" from="e_e_to_0_0" to="e_0_0_to_w" vehsPerHour="117" departLane="best" departSpeed="max" departPos="base"/>
    <flow id="flow_30" type="bus" begin="0" end="3600" from="e_e_to_0_0" to="e_0_0_to_w" vehsPerHour="29" departLane="best" departSpeed="max" departPos="base"/>
    <flow id="flow_31" type="truck" begin="0" end="3600" from="e_e_to_0_0" to="e_0_0_to_w" vehsPerHour="29" departLane="best" departSpeed="max" departPos="base"/>
    <flow id="flow_32" type="motorcycle" begin="0" end="3600" from="e_e_to_0_0" to="e_0_0_to_s" vehsPerHour="94" departLane="best" departSpeed="max" departPos="base"/>
    <flow id="flow_33" type="car" begin="0" end="3600" from="e_e_to_0_0" to="e_0_0_to_s" vehsPerHour="27" departLane="best" departSpeed="max" departPos="base"/>
    <flow id="flow_34" type="bus" begin="0" end="3600" from="e_e_to_0_0" to="e_0_0_to_s" vehsPerHour="6" departLane="best" departSpeed="max" departPos="base"/>
    <flow id="flow_35" type="truck" begin="0" end="3600" from="e_e_to_0_0" to="e_0_0_to_s" vehsPerHour="6" departLane="best" departSpeed="max" departPos="base"/>
    <flow id="flow_36" type="motorcycle" begin="0" end="3600" from="e_w_to_0_0" to="e_0_0_to_s" vehsPerHour="125" departLane="best" departSpeed="max" departPos="base"/>
    <flow id="flow_37" type="car" begin="0" end="3600" from="e_w_to_0_0" to="e_0_0_to_s" vehsPerHour="36" departLane="best" departSpeed="max" departPos="base"/>
    <flow id="flow_38" type="bus" begin="0" end="3600" from="e_w_to_0_0" to="e_0_0_to_s" vehsPerHour="9" departLane="best" departSpeed="max" departPos="base"/>
    <flow id="flow_39" type="truck" begin="0" end="3600" from="e_w_to_0_0" to="e_0_0_to_s" vehsPerHour="9" departLane="best" departSpeed="max" departPos="base"/>
    <flow id="flow_40" type="motorcycle" begin="0" end="3600" from="e_w_to_0_0" to="e_0_0_to_e" vehsPerHour="409" departLane="best" departSpeed="max" departPos="base"/>
    <flow id="flow_41" type="car" begin="0" end="3600" from="e_w_to_0_0" to="e_0_0_to_e" vehsPerHour="117" departLane="best" departSpeed="max" departPos="base"/>
    <flow id="flow_42" type="bus" begin="0" end="3600" from="e_w_to_0_0" to="e_0_0_to_e" vehsPerHour="29" departLane="best" departSpeed="max" departPos="base"/>
    <flow id="flow_43" type="truck" begin="0" end="3600" from="e_w_to_0_0" to="e_0_0_to_e" vehsPerHour="29" departLane="best" departSpeed="max" departPos="base"/>
    <flow id="flow_44" type="motorcycle" begin="0" end="3600" from="e_w_to_0_0" to="e_0_0_to_n" vehsPerHour="94" departLane="best" departSpeed="max" departPos="base"/>
    <flow id="flow_45" type="car" begin="0" end="3600" from="e_w_to_0_0" to="e_0_0_to_n" vehsPerHour="27" departLane="best" departSpeed="max" departPos="base"/>
    <flow id="flow_46" type="bus" begin="0" end="3600" from="e_w_to_0_0" to="e_0_0_to_n" vehsPerHour="6" departLane="best" departSpeed="max" departPos="base"/>
    <flow id="flow_47" type="truck" begin="0" end="3600" from="e_w_to_0_0" to="e_0_0_to_n" vehsPerHour="6" departLane="best" departSpeed="max" departPos="base"/>
</routes>