<?xml version="1.0" encoding="UTF-8"?>

<!-- generated on 2025-12-02 22:25:49 by Eclipse SUMO netconvert Version 1.23.1
<netconvertConfiguration xmlns:xsi="http://www.w3.org/2001/XMLSchema-instance" xsi:noNamespaceSchemaLocation="http://sumo.dlr.de/xsd/netconvertConfiguration.xsd">

    <input>
        <node-files value="scenarios/1x1/1x1_vietnamese/network.nod.xml"/>
        <edge-files value="scenarios/1x1/1x1_vietnamese/network.edg.xml"/>
        <tllogic-files value="scenarios/1x1/1x1_vietnamese/tls_programs.tll.xml"/>
        <type-files value="scenarios/1x1/1x1_vietnamese/network.typ.xml"/>
    </input>

    <output>
        <output-file value="scenarios/1x1/1x1_vietnamese/network.net.xml"/>
    </output>

    <processing>
        <geometry.remove value="false"/>
        <roundabouts.guess value="false"/>
    </processing>

    <building_defaults>
        <default.lanenumber value="2"/>
        <default.lanewidth value="3.2"/>
    </building_defaults>

    <junctions>
        <junctions.join value="false"/>
        <junctions.corner-detail value="5"/>
    </junctions>

</netconvertConfiguration>
-->

<net version="1.20" junctionCornerDetail="5" limitTurnSpeed="5.50" xmlns:xsi="http://www.w3.org/2001/XMLSchema-instance" xsi:noNamespaceSchemaLocation="http://sumo.dlr.de/xsd/net_file.xsd">

    <location netOffset="200.00,200.00" convBoundary="0.00,0.00,400.00,400.00" origBoundary="-200.00,-200.00,200.00,200.00" projParameter="!"/>

    <type id="urban_road" priority="9" numLanes="2" speed="13.89" allow="passenger bus truck motorcycle" width="3.20"/>

    <edge id=":n_0_0_0" function="internal">
        <lane id=":n_0_0_0_0" index="0" allow="passenger bus truck motorcycle" speed="6.51" length="9.03" width="3.20" shape="195.20,210.40 194.85,207.95 193.80,206.20 192.05,205.15 189.60,204.80"/>
    </edge>
    <edge id=":n_0_0_1" function="internal">
        <lane id=":n_0_0_1_0" index="0" allow="passenger bus truck motorcycle" speed="13.89" length="20.80" width="3.20" shape="195.20,210.40 195.20,189.60"/>
        <lane id=":n_0_0_1_1" index="1" allow="passenger bus truck motorcycle" speed="13.89" length="20.80" width="3.20" shape="198.40,210.40 198.40,189.60"/>
    </edge>
    <edge id=":n_0_0_3" function="internal">
        <lane id=":n_0_0_3_0" index="0" allow="passenger bus truck motorcycle" speed="9.26" length="5.01" width="3.20" shape="198.40,210.40 199.11,205.44"/>
    </edge>
    <edge id=":n_0_0_4" function="internal">
        <lane id=":n_0_0_4_0" index="0" allow="passenger bus truck motorcycle" speed="3.65" length="1.44" width="3.20" shape="198.40,210.40 199.20,209.20"/>
    </edge>
    <edge id=":n_0_0_20" function="internal">
        <lane id=":n_0_0_20_0" index="0" allow="passenger bus truck motorcycle" speed="9.26" length="14.34" width="3.20" shape="199.11,205.44 199.15,205.15 201.40,201.40 205.15,199.15 210.40,198.40"/>
    </edge>
    <edge id=":n_0_0_21" function="internal">
        <lane id=":n_0_0_21_0" index="0" allow="passenger bus truck motorcycle" speed="3.65" length="3.23" width="3.20" shape="199.20,209.20 200.00,208.80 200.80,209.20 201.60,210.40"/>
    </edge>
    <edge id=":n_0_0_5" function="internal">
        <lane id=":n_0_0_5_0" index="0" allow="passenger bus truck motorcycle" speed="6.51" length="9.03" width="3.20" shape="210.40,204.80 207.95,205.15 206.20,206.20 205.15,207.95 204.80,210.40"/>
    </edge>
    <edge id=":n_0_0_6" function="internal">
        <lane id=":n_0_0_6_0" index="0" allow="passenger bus truck motorcycle" speed="13.89" length="20.80" width="3.20" shape="210.40,204.80 189.60,204.80"/>
        <lane id=":n_0_0_6_1" index="1" allow="passenger bus truck motorcycle" speed="13.89" length="20.80" width="3.20" shape="210.40,201.60 189.60,201.60"/>
    </edge>
    <edge id=":n_0_0_8" function="internal">
        <lane id=":n_0_0_8_0" index="0" allow="passenger bus truck motorcycle" speed="9.26" length="5.01" width="3.20" shape="210.40,201.60 205.44,200.89"/>
    </edge>
    <edge id=":n_0_0_9" function="internal">
        <lane id=":n_0_0_9_0" index="0" allow="passenger bus truck motorcycle" speed="3.65" length="1.44" width="3.20" shape="210.40,201.60 209.20,200.80"/>
    </edge>
    <edge id=":n_0_0_22" function="internal">
        <lane id=":n_0_0_22_0" index="0" allow="passenger bus truck motorcycle" speed="9.26" length="14.34" width="3.20" shape="205.44,200.89 205.15,200.85 201.40,198.60 199.15,194.85 198.40,189.60"/>
    </edge>
    <edge id=":n_0_0_23" function="internal">
        <lane id=":n_0_0_23_0" index="0" allow="passenger bus truck motorcycle" speed="3.65" length="3.23" width="3.20" shape="209.20,200.80 208.80,200.00 209.20,199.20 210.40,198.40"/>
    </edge>
    <edge id=":n_0_0_10" function="internal">
        <lane id=":n_0_0_10_0" index="0" allow="passenger bus truck motorcycle" speed="6.51" length="9.03" width="3.20" shape="204.80,189.60 205.15,192.05 206.20,193.80 207.95,194.85 210.40,195.20"/>
    </edge>
    <edge id=":n_0_0_11" function="internal">
        <lane id=":n_0_0_11_0" index="0" allow="passenger bus truck motorcycle" speed="13.89" length="20.80" width="3.20" shape="204.80,189.60 204.80,210.40"/>
        <lane id=":n_0_0_11_1" index="1" allow="passenger bus truck motorcycle" speed="13.89" length="20.80" width="3.20" shape="201.60,189.60 201.60,210.40"/>
    </edge>
    <edge id=":n_0_0_13" function="internal">
        <lane id=":n_0_0_13_0" index="0" allow="passenger bus truck motorcycle" speed="9.26" length="5.01" width="3.20" shape="201.60,189.60 200.89,194.56"/>
    </edge>
    <edge id=":n_0_0_14" function="internal">
        <lane id=":n_0_0_14_0" index="0" allow="passenger bus truck motorcycle" speed="3.65" length="1.44" width="3.20" shape="201.60,189.60 200.80,190.80"/>
    </edge>
    <edge id=":n_0_0_24" function="internal">
        <lane id=":n_0_0_24_0" index="0" allow="passenger bus truck motorcycle" speed="9.26" length="14.34" width="3.20" shape="200.89,194.56 200.85,194.85 198.60,198.60 194.85,200.85 189.60,201.60"/>
    </edge>
    <edge id=":n_0_0_25" function="internal">
        <lane id=":n_0_0_25_0" index="0" allow="passenger bus truck motorcycle" speed="3.65" length="3.23" width="3.20" shape="200.80,190.80 200.00,191.20 199.20,190.80 198.40,189.60"/>
    </edge>
    <edge id=":n_0_0_15" function="internal">
        <lane id=":n_0_0_15_0" index="0" allow="passenger bus truck motorcycle" speed="6.51" length="9.03" width="3.20" shape="189.60,195.20 192.05,194.85 193.80,193.80 194.85,192.05 195.20,189.60"/>
    </edge>
    <edge id=":n_0_0_16" function="internal">
        <lane id=":n_0_0_16_0" index="0" allow="passenger bus truck motorcycle" speed="13.89" length="20.80" width="3.20" shape="189.60,195.20 210.40,195.20"/>
        <lane id=":n_0_0_16_1" index="1" allow="passenger bus truck motorcycle" speed="13.89" length="20.80" width="3.20" shape="189.60,198.40 210.40,198.40"/>
    </edge>
    <edge id=":n_0_0_18" function="internal">
        <lane id=":n_0_0_18_0" index="0" allow="passenger bus truck motorcycle" speed="9.26" length="5.01" width="3.20" shape="189.60,198.40 194.56,199.11"/>
    </edge>
    <edge id=":n_0_0_19" function="internal">
        <lane id=":n_0_0_19_0" index="0" allow="passenger bus truck motorcycle" speed="3.65" length="1.44" width="3.20" shape="189.60,198.40 190.80,199.20"/>
    </edge>
    <edge id=":n_0_0_26" function="internal">
        <lane id=":n_0_0_26_0" index="0" allow="passenger bus truck motorcycle" speed="9.26" length="14.34" width="3.20" shape="194.56,199.11 194.85,199.15 198.60,201.40 200.85,205.15 201.60,210.40"/>
    </edge>
    <edge id=":n_0_0_27" function="internal">
        <lane id=":n_0_0_27_0" index="0" allow="passenger bus truck motorcycle" speed="3.65" length="3.23" width="3.20" shape="190.80,199.20 191.20,200.00 190.80,200.80 189.60,201.60"/>
    </edge>
    <edge id=":n_east_0_0" function="internal">
        <lane id=":n_east_0_0_0" index="0" allow="passenger bus truck motorcycle" speed="3.65" length="4.67" width="3.20" shape="400.05,198.40 401.25,199.20 401.65,200.00 401.25,200.80 400.05,201.60"/>
    </edge>
    <edge id=":n_north_0_0" function="internal">
        <lane id=":n_north_0_0_0" index="0" allow="passenger bus truck motorcycle" speed="3.65" length="4.67" width="3.20" shape="201.60,400.05 200.80,401.25 200.00,401.65 199.20,401.25 198.40,400.05"/>
    </edge>
    <edge id=":n_south_0_0" function="internal">
        <lane id=":n_south_0_0_0" index="0" allow="passenger bus truck motorcycle" speed="3.65" length="4.67" width="3.20" shape="198.40,-0.05 199.20,-1.25 200.00,-1.65 200.80,-1.25 201.60,-0.05"/>
    </edge>
    <edge id=":n_west_0_0" function="internal">
        <lane id=":n_west_0_0_0" index="0" allow="passenger bus truck motorcycle" speed="3.65" length="4.67" width="3.20" shape="-0.05,201.60 -1.25,200.80 -1.65,200.00 -1.25,199.20 -0.05,198.40"/>
    </edge>

    <edge id="e_0_0_to_e" from="n_0_0" to="n_east_0" priority="9" type="urban_road" spreadType="center" shape="200.00,196.80 400.05,196.80">
        <lane id="e_0_0_to_e_0" index="0" allow="passenger bus truck motorcycle" speed="13.89" length="189.65" width="3.20" shape="210.40,195.20 400.05,195.20"/>
        <lane id="e_0_0_to_e_1" index="1" allow="passenger bus truck motorcycle" speed="13.89" length="189.65" width="3.20" shape="210.40,198.40 400.05,198.40"/>
    </edge>
    <edge id="e_0_0_to_n" from="n_0_0" to="n_north_0" priority="9" type="urban_road" spreadType="center" shape="203.20,200.00 203.20,400.05">
        <lane id="e_0_0_to_n_0" index="0" allow="passenger bus truck motorcycle" speed="13.89" length="189.65" width="3.20" shape="204.80,210.40 204.80,400.05"/>
        <lane id="e_0_0_to_n_1" index="1" allow="passenger bus truck motorcycle" speed="13.89" length="189.65" width="3.20" shape="201.60,210.40 201.60,400.05"/>
    </edge>
    <edge id="e_0_0_to_s" from="n_0_0" to="n_south_0" priority="9" type="urban_road" spreadType="center" shape="196.80,200.00 196.80,-0.05">
        <lane id="e_0_0_to_s_0" index="0" allow="passenger bus truck motorcycle" speed="13.89" length="189.65" width="3.20" shape="195.20,189.60 195.20,-0.05"/>
        <lane id="e_0_0_to_s_1" index="1" allow="passenger bus truck motorcycle" speed="13.89" length="189.65" width="3.20" shape="198.40,189.60 198.40,-0.05"/>
    </edge>
    <edge id="e_0_0_to_w" from="n_0_0" to="n_west_0" priority="9" type="urban_road" spreadType="center" shape="200.00,203.20 -0.05,203.20">
        <lane id="e_0_0_to_w_0" index="0" allow="passenger bus truck motorcycle" speed="13.89" length="189.65" width="3.20" shape="189.60,204.80 -0.05,204.80"/>
        <lane id="e_0_0_to_w_1" index="1" allow="passenger bus truck motorcycle" speed="13.89" length="189.65" width="3.20" shape="189.60,201.60 -0.05,201.60"/>
    </edge>
    <edge id="e_e_to_0_0" from="n_east_0" to="n_0_0" priority="9" type="urban_road" spreadType="center" shape="400.05,203.20 200.00,203.20">
        <lane id="e_e_to_0_0_0" index="0" allow="passenger bus truck motorcycle" speed="13.89" length="189.65" width="3.20" shape="400.05,204.80 210.40,204.80"/>
        <lane id="e_e_to_0_0_1" index="1" allow="passenger bus truck motorcycle" speed="13.89" length="189.65" width="3.20" shape="400.05,201.60 210.40,201.60"/>
    </edge>
    <edge id="e_n_to_0_0" from="n_north_0" to="n_0_0" priority="9" type="urban_road" spreadType="center" shape="196.80,400.05 196.80,200.00">
        <lane id="e_n_to_0_0_0" index="0" allow="passenger bus truck motorcycle" speed="13.89" length="189.65" width="3.20" shape="195.20,400.05 195.20,210.40"/>
        <lane id="e_n_to_0_0_1" index="1" allow="passenger bus truck motorcycle" speed="13.89" length="189.65" width="3.20" shape="198.40,400.05 198.40,210.40"/>
    </edge>
    <edge id="e_s_to_0_0" from="n_south_0" to="n_0_0" priority="9" type="urban_road" spreadType="center" shape="203.20,-0.05 203.20,200.00">
        <lane id="e_s_to_0_0_0" index="0" allow="passenger bus truck motorcycle" speed="13.89" length="189.65" width="3.20" shape="204.80,-0.05 204.80,189.60"/>
        <lane id="e_s_to_0_0_1" index="1" allow="passenger bus truck motorcycle" speed="13.89" length="189.65" width="3.20" shape="201.60,-0.05 201.60,189.60"/>
    </edge>
    <edge id="e_w_to_0_0" from="n_west_0" to="n_0_0" priority="9" type="urban_road" spreadType="center" shape="-0.05,196.80 200.00,196.80">
        <lane id="e_w_to_0_0_0" index="0" allow="passenger bus truck motorcycle" speed="13.89" length="189.65" width="3.20" shape="-0.05,195.20 189.60,195.20"/>
        <lane id="e_w_to_0_0_1" index="1" allow="passenger bus truck motorcycle" speed="13.89" length="189.65" width="3.20" shape="-0.05,198.40 189.60,198.40"/>
    </edge>

    <tlLogic id="n_0_0" type="static" programID="0" offset="0">
        <phase duration="42" state="GGGggrrrrrGGGggrrrrr"/>
        <phase duration="3"  state="yyyyyrrrrryyyyyrrrrr"/>
        <phase duration="42" state="rrrrrGGGggrrrrrGGGgg"/>
        <phase duration="3"  state="rrrrryyyyyrrrrryyyyy"/>
    </tlLogic>

    <junction id="n_0_0" type="traffic_light" x="200.00" y="200.00" incLanes="e_n_to_0_0_0 e_n_to_0_0_1 e_e_to_0_0_0 e_e_to_0_0_1 e_s_to_0_0_0 e_s_to_0_0_1 e_w_to_0_0_0 e_w_to_0_0_1" intLanes=":n_0_0_0_0 :n_0_0_1_0 :n_0_0_1_1 :n_0_0_20_0 :n_0_0_21_0 :n_0_0_5_0 :n_0_0_6_0 :n_0_0_6_1 :n_0_0_22_0 :n_0_0_23_0 :n_0_0_10_0 :n_0_0_11_0 :n_0_0_11_1 :n_0_0_24_0 :n_0_0_25_0 :n_0_0_15_0 :n_0_0_16_0 :n_0_0_16_1 :n_0_0_26_0 :n_0_0_27_0" shape="193.60,210.40 206.40,210.40 206.84,208.18 207.40,207.40 208.18,206.84 209.18,206.51 210.40,206.40 210.40,193.60 208.18,193.16 207.40,192.60 206.84,191.82 206.51,190.82 206.40,189.60 193.60,189.60 193.16,191.82 192.60,192.60 191.82,193.16 190.82,193.49 189.60,193.60 189.60,206.40 191.82,206.84 192.60,207.40 193.16,208.18 193.49,209.18">
        <request index="0"  response="00000000000000000000" foes="00000000000011000000" cont="0"/>
        <request index="1"  response="01000000000100000000" foes="01111110000111000000" cont="0"/>
        <request index="2"  response="01000000000100000000" foes="01111110000111000000" cont="0"/>
        <request index="3"  response="01000001100100000000" foes="01110001101111000000" cont="1"/>
        <request index="4"  response="01000001100000000000" foes="01000001100000000000" cont="1"/>
        <request index="5"  response="00000001100000000000" foes="00000001100000000000" cont="0"/>
        <request index="6"  response="00000011100000001111" foes="11000011100000001111" cont="0"/>
        <request index="7"  response="00000011100000001111" foes="11000011100000001111" cont="0"/>
        <request index="8"  response="00110011100000001110" foes="00110111100000001110" cont="1"/>
        <request index="9"  response="00110000000000001000" foes="00110000000000001000" cont="1"/>
        <request index="10" response="00000000000000000000" foes="00110000000000000000" cont="0"/>
        <request index="11" response="01000000000100000000" foes="01110000000111111000" cont="0"/>
        <request index="12" response="01000000000100000000" foes="01110000000111111000" cont="0"/>
        <request index="13" response="01000000000100000110" foes="11110000000111000110" cont="1"/>
        <request index="14" response="00000000000100000110" foes="00000000000100000110" cont="1"/>
        <request index="15" response="00000000000000000110" foes="00000000000000000110" cont="0"/>
        <request index="16" response="00000011110000001110" foes="00000011111100001110" cont="0"/>
        <request index="17" response="00000011110000001110" foes="00000011111100001110" cont="0"/>
        <request index="18" response="00000011100011001110" foes="00000011100011011110" cont="1"/>
        <request index="19" response="00000010000011000000" foes="00000010000011000000" cont="1"/>
    </junction>
    <junction id="n_east_0" type="priority" x="400.00" y="200.00" incLanes="e_0_0_to_e_0 e_0_0_to_e_1" intLanes=":n_east_0_0_0" shape="400.00,200.00 400.00,193.60 400.00,200.00">
        <request index="0" response="0" foes="0" cont="0"/>
    </junction>
    <junction id="n_north_0" type="priority" x="200.00" y="400.00" incLanes="e_0_0_to_n_0 e_0_0_to_n_1" intLanes=":n_north_0_0_0" shape="200.00,400.00 206.40,400.00 200.00,400.00">
        <request index="0" response="0" foes="0" cont="0"/>
    </junction>
    <junction id="n_south_0" type="priority" x="200.00" y="0.00" incLanes="e_0_0_to_s_0 e_0_0_to_s_1" intLanes=":n_south_0_0_0" shape="200.00,0.00 193.60,-0.00 200.00,0.00">
        <request index="0" response="0" foes="0" cont="0"/>
    </junction>
    <junction id="n_west_0" type="priority" x="0.00" y="200.00" incLanes="e_0_0_to_w_0 e_0_0_to_w_1" intLanes=":n_west_0_0_0" shape="0.00,200.00 -0.00,206.40 0.00,200.00">
        <request index="0" response="0" foes="0" cont="0"/>
    </junction>

    <junction id=":n_0_0_20_0" type="internal" x="199.11" y="205.44" incLanes=":n_0_0_3_0 e_s_to_0_0_0 e_s_to_0_0_1" intLanes=":n_0_0_6_0 :n_0_0_6_1 :n_0_0_8_0 :n_0_0_9_0 :n_0_0_10_0 :n_0_0_11_0 :n_0_0_11_1 :n_0_0_16_0 :n_0_0_16_1 :n_0_0_18_0"/>
    <junction id=":n_0_0_21_0" type="internal" x="199.20" y="209.20" incLanes=":n_0_0_4_0 e_e_to_0_0_0 e_s_to_0_0_0 e_s_to_0_0_1 e_w_to_0_0_1" intLanes=":n_0_0_5_0 :n_0_0_11_0 :n_0_0_11_1 :n_0_0_18_0"/>
    <junction id=":n_0_0_22_0" type="internal" x="205.44" y="200.89" incLanes=":n_0_0_8_0 e_w_to_0_0_0 e_w_to_0_0_1" intLanes=":n_0_0_1_0 :n_0_0_1_1 :n_0_0_3_0 :n_0_0_11_0 :n_0_0_11_1 :n_0_0_13_0 :n_0_0_14_0 :n_0_0_15_0 :n_0_0_16_0 :n_0_0_16_1"/>
    <junction id=":n_0_0_23_0" type="internal" x="209.20" y="200.80" incLanes=":n_0_0_9_0 e_n_to_0_0_1 e_s_to_0_0_0 e_w_to_0_0_0 e_w_to_0_0_1" intLanes=":n_0_0_3_0 :n_0_0_10_0 :n_0_0_16_0 :n_0_0_16_1"/>
    <junction id=":n_0_0_24_0" type="internal" x="200.89" y="194.56" incLanes=":n_0_0_13_0 e_n_to_0_0_0 e_n_to_0_0_1" intLanes=":n_0_0_0_0 :n_0_0_1_0 :n_0_0_1_1 :n_0_0_6_0 :n_0_0_6_1 :n_0_0_8_0 :n_0_0_16_0 :n_0_0_16_1 :n_0_0_18_0 :n_0_0_19_0"/>
    <junction id=":n_0_0_25_0" type="internal" x="200.80" y="190.80" incLanes=":n_0_0_14_0 e_e_to_0_0_1 e_n_to_0_0_0 e_n_to_0_0_1 e_w_to_0_0_0" intLanes=":n_0_0_1_0 :n_0_0_1_1 :n_0_0_8_0 :n_0_0_15_0"/>
    <junction id=":n_0_0_26_0" type="internal" x="194.56" y="199.11" incLanes=":n_0_0_18_0 e_e_to_0_0_0 e_e_to_0_0_1" intLanes=":n_0_0_1_0 :n_0_0_1_1 :n_0_0_3_0 :n_0_0_4_0 :n_0_0_5_0 :n_0_0_6_0 :n_0_0_6_1 :n_0_0_11_0 :n_0_0_11_1 :n_0_0_13_0"/>
    <junction id=":n_0_0_27_0" type="internal" x="190.80" y="199.20" incLanes=":n_0_0_19_0 e_e_to_0_0_0 e_e_to_0_0_1 e_n_to_0_0_0 e_s_to_0_0_1" intLanes=":n_0_0_0_0 :n_0_0_6_0 :n_0_0_6_1 :n_0_0_13_0"/>

    <connection from="e_0_0_to_e" to="e_e_to_0_0" fromLane="1" toLane="1" via=":n_east_0_0_0" dir="t" state="M"/>
    <connection from="e_0_0_to_n" to="e_n_to_0_0" fromLane="1" toLane="1" via=":n_north_0_0_0" dir="t" state="M"/>
    <connection from="e_0_0_to_s" to="e_s_to_0_0" fromLane="1" toLane="1" via=":n_south_0_0_0" dir="t" state="M"/>
    <connection from="e_0_0_to_w" to="e_w_to_0_0" fromLane="1" toLane="1" via=":n_west_0_0_0" dir="t" state="M"/>
    <connection from="e_e_to_0_0" to="e_0_0_to_n" fromLane="0" toLane="0" via=":n_0_0_5_0" tl="n_0_0" linkIndex="5" dir="r" state="o"/>
    <connection from="e_e_to_0_0" to="e_0_0_to_w" fromLane="0" toLane="0" via=":n_0_0_6_0" tl="n_0_0" linkIndex="6" dir="s" state="o"/>
    <connection from="e_e_to_0_0" to="e_0_0_to_w" fromLane="1" toLane="1" via=":n_0_0_6_1" tl="n_0_0" linkIndex="7" dir="s" state="o"/>
    <connection from="e_e_to_0_0" to="e_0_0_to_s" fromLane="1" toLane="1" via=":n_0_0_8_0" tl="n_0_0" linkIndex="8" dir="l" state="o"/>
    <connection from="e_e_to_0_0" to="e_0_0_to_e" fromLane="1" toLane="1" via=":n_0_0_9_0" tl="n_0_0" linkIndex="9" dir="t" state="o"/>
    <connection from="e_n_to_0_0" to="e_0_0_to_w" fromLane="0" toLane="0" via=":n_0_0_0_0" tl="n_0_0" linkIndex="0" dir="r" state="O"/>
    <connection from="e_n_to_0_0" to="e_0_0_to_s" fromLane="0" toLane="0" via=":n_0_0_1_0" tl="n_0_0" linkIndex="1" dir="s" state="O"/>
    <connection from="e_n_to_0_0" to="e_0_0_to_s" fromLane="1" toLane="1" via=":n_0_0_1_1" tl="n_0_0" linkIndex="2" dir="s" state="O"/>
    <connection from="e_n_to_0_0" to="e_0_0_to_e" fromLane="1" toLane="1" via=":n_0_0_3_0" tl="n_0_0" linkIndex="3" dir="l" state="o"/>
    <connection from="e_n_to_0_0" to="e_0_0_to_n" fromLane="1" toLane="1" via=":n_0_0_4_0" tl="n_0_0" linkIndex="4" dir="t" state="o"/>
    <connection from="e_s_to_0_0" to="e_0_0_to_e" fromLane="0" toLane="0" via=":n_0_0_10_0" tl="n_0_0" linkIndex="10" dir="r" state="O"/>
    <connection from="e_s_to_0_0" to="e_0_0_to_n" fromLane="0" toLane="0" via=":n_0_0_11_0" tl="n_0_0" linkIndex="11" dir="s" state="O"/>
    <connection from="e_s_to_0_0" to="e_0_0_to_n" fromLane="1" toLane="1" via=":n_0_0_11_1" tl="n_0_0" linkIndex="12" dir="s" state="O"/>
    <connection from="e_s_to_0_0" to="e_0_0_to_w" fromLane="1" toLane="1" via=":n_0_0_13_0" tl="n_0_0" linkIndex="13" dir="l" state="o"/>
    <connection from="e_s_to_0_0" to="e_0_0_to_s" fromLane="1" toLane="1" via=":n_0_0_14_0" tl="n_0_0" linkIndex="14" dir="t" state="o"/>
    <connection from="e_w_to_0_0" to="e_0_0_to_s" fromLane="0" toLane="0" via=":n_0_0_15_0" tl="n_0_0" linkIndex="15" dir="r" state="o"/>
    <connection from="e_w_to_0_0" to="e_0_0_to_e" fromLane="0" toLane="0" via=":n_0_0_16_0" tl="n_0_0" linkIndex="16" dir="s" state="o"/>
    <connection from="e_w_to_0_0" to="e_0_0_to_e" fromLane="1" toLane="1" via=":n_0_0_16_1" tl="n_0_0" linkIndex="17" dir="s" state="o"/>
    <connection from="e_w_to_0_0" to="e_0_0_to_n" fromLane="1" toLane="1" via=":n_0_0_18_0" tl="n_0_0" linkIndex="18" dir="l" state="o"/>
    <connection from="e_w_to_0_0" to="e_0_0_to_w" fromLane="1" toLane="1" via=":n_0_0_19_0" tl="n_0_0" linkIndex="19" dir="t" state="o"/>

    <connection from=":n_0_0_0" to="e_0_0_to_w" fromLane="0" toLane="0" dir="r" state="M"/>
    <connection from=":n_0_0_1" to="e_0_0_to_s" fromLane="0" toLane="0" dir="s" state="M"/>
    <connection from=":n_0_0_1" to="e_0_0_to_s" fromLane="1" toLane="1" dir="s" state="M"/>
    <connection from=":n_0_0_3" to="e_0_0_to_e" fromLane="0" toLane="1" via=":n_0_0_20_0" dir="l" state="m"/>
    <connection from=":n_0_0_20" to="e_0_0_to_e" fromLane="0" toLane="1" dir="l" state="M"/>
    <connection from=":n_0_0_4" to="e_0_0_to_n" fromLane="0" toLane="1" via=":n_0_0_21_0" dir="t" state="m"/>
    <connection from=":n_0_0_21" to="e_0_0_to_n" fromLane="0" toLane="1" dir="t" state="M"/>
    <connection from=":n_0_0_5" to="e_0_0_to_n" fromLane="0" toLane="0" dir="r" state="M"/>
    <connection from=":n_0_0_6" to="e_0_0_to_w" fromLane="0" toLane="0" dir="s" state="M"/>
    <connection from=":n_0_0_6" to="e_0_0_to_w" fromLane="1" toLane="1" dir="s" state="M"/>
    <connection from=":n_0_0_8" to="e_0_0_to_s" fromLane="0" toLane="1" via=":n_0_0_22_0" dir="l" state="m"/>
    <connection from=":n_0_0_22" to="e_0_0_to_s" fromLane="0" toLane="1" dir="l" state="M"/>
    <connection from=":n_0_0_9" to="e_0_0_to_e" fromLane="0" toLane="1" via=":n_0_0_23_0" dir="t" state="m"/>
    <connection from=":n_0_0_23" to="e_0_0_to_e" fromLane="0" toLane="1" dir="t" state="M"/>
    <connection from=":n_0_0_10" to="e_0_0_to_e" fromLane="0" toLane="0" dir="r" state="M"/>
    <connection from=":n_0_0_11" to="e_0_0_to_n" fromLane="0" toLane="0" dir="s" state="M"/>
    <connection from=":n_0_0_11" to="e_0_0_to_n" fromLane="1" toLane="1" dir="s" state="M"/>
    <connection from=":n_0_0_13" to="e_0_0_to_w" fromLane="0" toLane="1" via=":n_0_0_24_0" dir="l" state="m"/>
    <connection from=":n_0_0_24" to="e_0_0_to_w" fromLane="0" toLane="1" dir="l" state="M"/>
    <connection from=":n_0_0_14" to="e_0_0_to_s" fromLane="0" toLane="1" via=":n_0_0_25_0" dir="t" state="m"/>
    <connection from=":n_0_0_25" to="e_0_0_to_s" fromLane="0" toLane="1" dir="t" state="M"/>
    <connection from=":n_0_0_15" to="e_0_0_to_s" fromLane="0" toLane="0" dir="r" state="M"/>
    <connection from=":n_0_0_16" to="e_0_0_to_e" fromLane="0" toLane="0" dir="s" state="M"/>
    <connection from=":n_0_0_16" to="e_0_0_to_e" fromLane="1" toLane="1" dir="s" state="M"/>
    <connection from=":n_0_0_18" to="e_0_0_to_n" fromLane="0" toLane="1" via=":n_0_0_26_0" dir="l" state="m"/>
    <connection from=":n_0_0_26" to="e_0_0_to_n" fromLane="0" toLane="1" dir="l" state="M"/>
    <connection from=":n_0_0_19" to="e_0_0_to_w" fromLane="0" toLane="1" via=":n_0_0_27_0" dir="t" state="m"/>
    <connection from=":n_0_0_27" to="e_0_0_to_w" fromLane="0" toLane="1" dir="t" state="M"/>
    <connection from=":n_east_0_0" to="e_e_to_0_0" fromLane="0" toLane="1" dir="t" state="M"/>
    <connection from=":n_north_0_0" to="e_n_to_0_0" fromLane="0" toLane="1" dir="t" state="M"/>
    <connection from=":n_south_0_0" to="e_s_to_0_0" fromLane="0" toLane="1" dir="t" state="M"/>
    <connection from=":n_west_0_0" to="e_w_to_0_0" fromLane="0" toLane="1" dir="t" state="M"/>

</net>
