<?xml version="1.0" ?>
<nodes>
    <node id="n_0_0" x="0" y="0" type="traffic_light"/>
    <node id="n_north_0" x="0" y="200" type="priority"/>
    <node id="n_south_0" x="0" y="-200" type="priority"/>
    <node id="n_east_0" x="200" y="0" type="priority"/>
    <node id="n_west_0" x="-200" y="0" type="priority"/>
</nodes>