<?xml version="1.0" ?>
<additional>
    <vType id="motorcycle" vClass="motorcycle" length="2.0" width="0.8" height="1.5" maxSpeed="16.67" accel="2.0" decel="4.5" sigma="0.5" tau="0.8" speedFactor="1.1" speedDev="0.2" color="0,0,1" lcStrategic="3.0" lcCooperative="0.3" lcSpeedGain="5.0" lcKeepRight="0.0" latAlignment="compact"/>
    <vType id="car" vClass="passenger" length="4.5" width="1.8" height="1.5" maxSpeed="15.28" accel="0.8" decel="4.5" sigma="0.4" tau="1.0" speedFactor="1.05" speedDev="0.15" color="1,1,0" lcStrategic="1.5" lcCooperative="0.5" lcSpeedGain="2.0"/>
    <vType id="bus" vClass="bus" length="12.0" width="2.5" height="3.0" maxSpeed="13.89" accel="0.6" decel="3.0" sigma="0.3" tau="1.5" speedFactor="0.95" speedDev="0.1" color="0,1,0" lcStrategic="1.0" lcCooperative="0.8"/>
    <vType id="truck" vClass="truck" length="8.0" width="2.5" height="3.5" maxSpeed="13.89" accel="0.5" decel="3.0" sigma="0.2" tau="1.8" speedFactor="0.9" speedDev="0.1" color="1,0,0" lcStrategic="0.8" lcCooperative="0.9"/>
</additional>