<?xml version="1.0" ?>
<routes>
    <include href="vehicle_types.add.xml"/>
    <flow id="flow_0" type="motorcycle" begin="0" end="3600" from="e_n_to_1_0" to="e_1_1_to_e" vehsPerHour="42" departLane="best" departSpeed="max" departPos="base"/>
    <flow id="flow_1" type="car" begin="0" end="3600" from="e_n_to_1_0" to="e_1_1_to_e" vehsPerHour="12" departLane="best" departSpeed="max" departPos="base"/>
    <flow id="flow_2" type="bus" begin="0" end="3600" from="e_n_to_1_0" to="e_1_1_to_e" vehsPerHour="3" departLane="best" departSpeed="max" departPos="base"/>
    <flow id="flow_3" type="truck" begin="0" end="3600" from="e_n_to_1_0" to="e_1_1_to_e" vehsPerHour="3" departLane="best" departSpeed="max" departPos="base"/>
    <flow id="flow_4" type="motorcycle" begin="0" end="3600" from="e_n_to_1_0" to="e_0_0_to_s" vehsPerHour="136" departLane="best" departSpeed="max" departPos="base"/>
    <flow id="flow_5" type="car" begin="0" end="3600" from="e_n_to_1_0" to="e_0_0_to_s" vehsPerHour="39" departLane="best" departSpeed="max" departPos="base"/>
    <flow id="flow_6" type="bus" begin="0" end="3600" from="e_n_to_1_0" to="e_0_0_to_s" vehsPerHour="9" departLane="best" departSpeed="max" departPos="base"/>
    <flow id="flow_7" type="truck" begin="0" end="3600" from="e_n_to_1_0" to="e_0_0_to_s" vehsPerHour="9" departLane="best" departSpeed="max" departPos="base"/>
    <flow id="flow_8" type="motorcycle" begin="0" end="3600" from="e_n_to_1_0" to="e_1_0_to_w" vehsPerHour="31" departLane="best" departSpeed="max" departPos="base"/>
    <flow id="flow_9" type="car" begin="0" end="3600" from="e_n_to_1_0" to="e_1_0_to_w" vehsPerHour="9" departLane="best" departSpeed="max" departPos="base"/>
    <flow id="flow_10" type="bus" begin="0" end="3600" from="e_n_to_1_0" to="e_1_0_to_w" vehsPerHour="2" departLane="best" departSpeed="max" departPos="base"/>
    <flow id="flow_11" type="truck" begin="0" end="3600" from="e_n_to_1_0" to="e_1_0_to_w" vehsPerHour="2" departLane="best" departSpeed="max" departPos="base"/>
    <flow id="flow_12" type="motorcycle" begin="0" end="3600" from="e_n_to_1_1" to="e_1_1_to_e" vehsPerHour="42" departLane="best" departSpeed="max" departPos="base"/>
    <flow id="flow_13" type="car" begin="0" end="3600" from="e_n_to_1_1" to="e_1_1_to_e" vehsPerHour="12" departLane="best" departSpeed="max" departPos="base"/>
    <flow id="flow_14" type="bus" begin="0" end="3600" from="e_n_to_1_1" to="e_1_1_to_e" vehsPerHour="3" departLane="best" departSpeed="max" departPos="base"/>
    <flow id="flow_15" type="truck" begin="0" end="3600" from="e_n_to_1_1" to="e_1_1_to_e" vehsPerHour="3" departLane="best" departSpeed="max" departPos="base"/>
    <flow id="flow_16" type="motorcycle" begin="0" end="3600" from="e_n_to_1_1" to="e_0_1_to_s" vehsPerHour="136" departLane="best" departSpeed="max" departPos="base"/>
    <flow id="flow_17" type="car" begin="0" end="3600" from="e_n_to_1_1" to="e_0_1_to_s" vehsPerHour="39" departLane="best" departSpeed="max" departPos="base"/>
    <flow id="flow_18" type="bus" begin="0" end="3600" from="e_n_to_1_1" to="e_0_1_to_s" vehsPerHour="9" departLane="best" departSpeed="max" departPos="base"/>
    <flow id="flow_19" type="truck" begin="0" end="3600" from="e_n_to_1_1" to="e_0_1_to_s" vehsPerHour="9" departLane="best" departSpeed="max" departPos="base"/>
    <flow id="flow_20" type="motorcycle" begin="0" end="3600" from="e_n_to_1_1" to="e_1_0_to_w" vehsPerHour="31" departLane="best" departSpeed="max" departPos="base"/>
    <flow id="flow_21" type="car" begin="0" end="3600" from="e_n_to_1_1" to="e_1_0_to_w" vehsPerHour="9" departLane="best" departSpeed="max" departPos="base"/>
    <flow id="flow_22" type="bus" begin="0" end="3600" from="e_n_to_1_1" to="e_1_0_to_w" vehsPerHour="2" departLane="best" departSpeed="max" departPos="base"/>
    <flow id="flow_23" type="truck" begin="0" end="3600" from="e_n_to_1_1" to="e_1_0_to_w" vehsPerHour="2" departLane="best" departSpeed="max" departPos="base"/>
    <flow id="flow_24" type="motorcycle" begin="0" end="3600" from="e_s_to_0_0" to="e_1_0_to_w" vehsPerHour="42" departLane="best" departSpeed="max" departPos="base"/>
    <flow id="flow_25" type="car" begin="0" end="3600" from="e_s_to_0_0" to="e_1_0_to_w" vehsPerHour="12" departLane="best" departSpeed="max" departPos="base"/>
    <flow id="flow_26" type="bus" begin="0" end="3600" from="e_s_to_0_0" to="e_1_0_to_w" vehsPerHour="3" departLane="best" departSpeed="max" departPos="base"/>
    <flow id="flow_27" type="truck" begin="0" end="3600" from="e_s_to_0_0" to="e_1_0_to_w" vehsPerHour="3" departLane="best" departSpeed="max" departPos="base"/>
    <flow id="flow_28" type="motorcycle" begin="0" end="3600" from="e_s_to_0_0" to="e_1_0_to_n" vehsPerHour="136" departLane="best" departSpeed="max" departPos="base"/>
    <flow id="flow_29" type="car" begin="0" end="3600" from="e_s_to_0_0" to="e_1_0_to_n" vehsPerHour="39" departLane="best" departSpeed="max" departPos="base"/>
    <flow id="flow_30" type="bus" begin="0" end="3600" from="e_s_to_0_0" to="e_1_0_to_n" vehsPerHour="9" departLane="best" departSpeed="max" departPos="base"/>
    <flow id="flow_31" type="truck" begin="0" end="3600" from="e_s_to_0_0" to="e_1_0_to_n" vehsPerHour="9" departLane="best" departSpeed="max" departPos="base"/>
    <flow id="flow_32" type="motorcycle" begin="0" end="3600" from="e_s_to_0_0" to="e_1_1_to_e" vehsPerHour="31" departLane="best" departSpeed="max" departPos="base"/>
    <flow id="flow_33" type="car" begin="0" end="3600" from="e_s_to_0_0" to="e_1_1_to_e" vehsPerHour="9" departLane="best" departSpeed="max" departPos="base"/>
    <flow id="flow_34" type="bus" begin="0" end="3600" from="e_s_to_0_0" to="e_1_1_to_e" vehsPerHour="2" departLane="best" departSpeed="max" departPos="base"/>
    <flow id="flow_35" type="truck" begin="0" end="3600" from="e_s_to_0_0" to="e_1_1_to_e" vehsPerHour="2" departLane="best" departSpeed="max" departPos="base"/>
    <flow id="flow_36" type="motorcycle" begin="0" end="3600" from="e_s_to_0_1" to="e_1_0_to_w" vehsPerHour="42" departLane="best" departSpeed="max" departPos="base"/>
    <flow id="flow_37" type="car" begin="0" end="3600" from="e_s_to_0_1" to="e_1_0_to_w" vehsPerHour="12" departLane="best" departSpeed="max" departPos="base"/>
    <flow id="flow_38" type="bus" begin="0" end="3600" from="e_s_to_0_1" to="e_1_0_to_w" vehsPerHour="3" departLane="best" departSpeed="max" departPos="base"/>
    <flow id="flow_39" type="truck" begin="0" end="3600" from="e_s_to_0_1" to="e_1_0_to_w" vehsPerHour="3" departLane="best" departSpeed="max" departPos="base"/>
    <flow id="flow_40" type="motorcycle" begin="0" end="3600" from="e_s_to_0_1" to="e_1_1_to_n" vehsPerHour="136" departLane="best" departSpeed="max" departPos="base"/>
    <flow id="flow_41" type="car" begin="0" end="3600" from="e_s_to_0_1" to="e_1_1_to_n" vehsPerHour="39" departLane="best" departSpeed="max" departPos="base"/>
    <flow id="flow_42" type="bus" begin="0" end="3600" from="e_s_to_0_1" to="e_1_1_to_n" vehsPerHour="9" departLane="best" departSpeed="max" departPos="base"/>
    <flow id="flow_43" type="truck" begin="0" end="3600" from="e_s_to_0_1" to="e_1_1_to_n" vehsPerHour="9" departLane="best" departSpeed="max" departPos="base"/>
    <flow id="flow_44" type="motorcycle" begin="0" end="3600" from="e_s_to_0_1" to="e_1_1_to_e" vehsPerHour="31" departLane="best" departSpeed="max" departPos="base"/>
    <flow id="flow_45" type="car" begin="0" end="3600" from="e_s_to_0_1" to="e_1_1_to_e" vehsPerHour="9" departLane="best" departSpeed="max" departPos="base"/>
    <flow id="flow_46" type="bus" begin="0" end="3600" from="e_s_to_0_1" to="e_1_1_to_e" vehsPerHour="2" departLane="best" departSpeed="max" departPos="base"/>
    <flow id="flow_47" type="truck" begin="0" end="3600" from="e_s_to_0_1" to="e_1_1_to_e" vehsPerHour="2" departLane="best" departSpeed="max" departPos="base"/>
    <flow id="flow_48" type="motorcycle" begin="0" end="3600" from="e_e_to_0_1" to="e_1_1_to_n" vehsPerHour="98" departLane="best" departSpeed="max" departPos="base"/>
    <flow id="flow_49" type="car" begin="0" end="3600" from="e_e_to_0_1" to="e_1_1_to_n" vehsPerHour="28" departLane="best" departSpeed="max" departPos="base"/>
    <flow id="flow_50" type="bus" begin="0" end="3600" from="e_e_to_0_1" to="e_1_1_to_n" vehsPerHour="7" departLane="best" departSpeed="max" departPos="base"/>
    <flow id="flow_51" type="truck" begin="0" end="3600" from="e_e_to_0_1" to="e_1_1_to_n" vehsPerHour="7" departLane="best" departSpeed="max" departPos="base"/>
    <flow id="flow_52" type="motorcycle" begin="0" end="3600" from="e_e_to_0_1" to="e_0_0_to_w" vehsPerHour="318" departLane="best" departSpeed="max" departPos="base"/>
    <flow id="flow_53" type="car" begin="0" end="3600" from="e_e_to_0_1" to="e_0_0_to_w" vehsPerHour="91" departLane="best" departSpeed="max" departPos="base"/>
    <flow id="flow_54" type="bus" begin="0" end="3600" from="e_e_to_0_1" to="e_0_0_to_w" vehsPerHour="22" departLane="best" departSpeed="max" departPos="base"/>
    <flow id="flow_55" type="truck" begin="0" end="3600" from="e_e_to_0_1" to="e_0_0_to_w" vehsPerHour="22" departLane="best" departSpeed="max" departPos="base"/>
    <flow id="flow_56" type="motorcycle" begin="0" end="3600" from="e_e_to_0_1" to="e_0_1_to_s" vehsPerHour="73" departLane="best" departSpeed="max" departPos="base"/>
    <flow id="flow_57" type="car" begin="0" end="3600" from="e_e_to_0_1" to="e_0_1_to_s" vehsPerHour="21" departLane="best" departSpeed="max" departPos="base"/>
    <flow id="flow_58" type="bus" begin="0" end="3600" from="e_e_to_0_1" to="e_0_1_to_s" vehsPerHour="5" departLane="best" departSpeed="max" departPos="base"/>
    <flow id="flow_59" type="truck" begin="0" end="3600" from="e_e_to_0_1" to="e_0_1_to_s" vehsPerHour="5" departLane="best" departSpeed="max" departPos="base"/>
    <flow id="flow_60" type="motorcycle" begin="0" end="3600" from="e_e_to_1_1" to="e_1_1_to_n" vehsPerHour="98" departLane="best" departSpeed="max" departPos="base"/>
    <flow id="flow_61" type="car" begin="0" end="3600" from="e_e_to_1_1" to="e_1_1_to_n" vehsPerHour="28" departLane="best" departSpeed="max" departPos="base"/>
    <flow id="flow_62" type="bus" begin="0" end="3600" from="e_e_to_1_1" to="e_1_1_to_n" vehsPerHour="7" departLane="best" departSpeed="max" departPos="base"/>
    <flow id="flow_63" type="truck" begin="0" end="3600" from="e_e_to_1_1" to="e_1_1_to_n" vehsPerHour="7" departLane="best" departSpeed="max" departPos="base"/>
    <flow id="flow_64" type="motorcycle" begin="0" end="3600" from="e_e_to_1_1" to="e_1_0_to_w" vehsPerHour="318" departLane="best" departSpeed="max" departPos="base"/>
    <flow id="flow_65" type="car" begin="0" end="3600" from="e_e_to_1_1" to="e_1_0_to_w" vehsPerHour="91" departLane="best" departSpeed="max" departPos="base"/>
    <flow id="flow_66" type="bus" begin="0" end="3600" from="e_e_to_1_1" to="e_1_0_to_w" vehsPerHour="22" departLane="best" departSpeed="max" departPos="base"/>
    <flow id="flow_67" type="truck" begin="0" end="3600" from="e_e_to_1_1" to="e_1_0_to_w" vehsPerHour="22" departLane="best" departSpeed="max" departPos="base"/>
    <flow id="flow_68" type="motorcycle" begin="0" end="3600" from="e_e_to_1_1" to="e_0_1_to_s" vehsPerHour="73" departLane="best" departSpeed="max" departPos="base"/>
    <flow id="flow_69" type="car" begin="0" end="3600" from="e_e_to_1_1" to="e_0_1_to_s" vehsPerHour="21" departLane="best" departSpeed="max" departPos="base"/>
    <flow id="flow_70" type="bus" begin="0" end="3600" from="e_e_to_1_1" to="e_0_1_to_s" vehsPerHour="5" departLane="best" departSpeed="max" departPos="base"/>
    <flow id="flow_71" type="truck" begin="0" end="3600" from="e_e_to_1_1" to="e_0_1_to_s" vehsPerHour="5" departLane="best" departSpeed="max" departPos="base"/>
    <flow id="flow_72" type="motorcycle" begin="0" end="3600" from="e_w_to_0_0" to="e_0_1_to_s" vehsPerHour="98" departLane="best" departSpeed="max" departPos="base"/>
    <flow id="flow_73" type="car" begin="0" end="3600" from="e_w_to_0_0" to="e_0_1_to_s" vehsPerHour="28" departLane="best" departSpeed="max" departPos="base"/>
    <flow id="flow_74" type="bus" begin="0" end="3600" from="e_w_to_0_0" to="e_0_1_to_s" vehsPerHour="7" departLane="best" departSpeed="max" departPos="base"/>
    <flow id="flow_75" type="truck" begin="0" end="3600" from="e_w_to_0_0" to="e_0_1_to_s" vehsPerHour="7" departLane="best" departSpeed="max" departPos="base"/>
    <flow id="flow_76" type="motorcycle" begin="0" end="3600" from="e_w_to_0_0" to="e_0_1_to_e" vehsPerHour="318" departLane="best" departSpeed="max" departPos="base"/>
    <flow id="flow_77" type="car" begin="0" end="3600" from="e_w_to_0_0" to="e_0_1_to_e" vehsPerHour="91" departLane="best" departSpeed="max" departPos="base"/>
    <flow id="flow_78" type="bus" begin="0" end="3600" from="e_w_to_0_0" to="e_0_1_to_e" vehsPerHour="22" departLane="best" departSpeed="max" departPos="base"/>
    <flow id="flow_79" type="truck" begin="0" end="3600" from="e_w_to_0_0" to="e_0_1_to_e" vehsPerHour="22" departLane="best" departSpeed="max" departPos="base"/>
    <flow id="flow_80" type="motorcycle" begin="0" end="3600" from="e_w_to_0_0" to="e_1_1_to_n" vehsPerHour="73" departLane="best" departSpeed="max" departPos="base"/>
    <flow id="flow_81" type="car" begin="0" end="3600" from="e_w_to_0_0" to="e_1_1_to_n" vehsPerHour="21" departLane="best" departSpeed="max" departPos="base"/>
    <flow id="flow_82" type="bus" begin="0" end="3600" from="e_w_to_0_0" to="e_1_1_to_n" vehsPerHour="5" departLane="best" departSpeed="max" departPos="base"/>
    <flow id="flow_83" type="truck" begin="0" end="3600" from="e_w_to_0_0" to="e_1_1_to_n" vehsPerHour="5" departLane="best" departSpeed="max" departPos="base"/>
    <flow id="flow_84" type="motorcycle" begin="0" end="3600" from="e_w_to_1_0" to="e_0_1_to_s" vehsPerHour="98" departLane="best" departSpeed="max" departPos="base"/>
    <flow id="flow_85" type="car" begin="0" end="3600" from="e_w_to_1_0" to="e_0_1_to_s" vehsPerHour="28" departLane="best" departSpeed="max" departPos="base"/>
    <flow id="flow_86" type="bus" begin="0" end="3600" from="e_w_to_1_0" to="e_0_1_to_s" vehsPerHour="7" departLane="best" departSpeed="max" departPos="base"/>
    <flow id="flow_87" type="truck" begin="0" end="3600" from="e_w_to_1_0" to="e_0_1_to_s" vehsPerHour="7" departLane="best" departSpeed="max" departPos="base"/>
    <flow id="flow_88" type="motorcycle" begin="0" end="3600" from="e_w_to_1_0" to="e_1_1_to_e" vehsPerHour="318" departLane="best" departSpeed="max" departPos="base"/>
    <flow id="flow_89" type="car" begin="0" end="3600" from="e_w_to_1_0" to="e_1_1_to_e" vehsPerHour="91" departLane="best" departSpeed="max" departPos="base"/>
    <flow id="flow_90" type="bus" begin="0" end="3600" from="e_w_to_1_0" to="e_1_1_to_e" vehsPerHour="22" departLane="best" departSpeed="max" departPos="base"/>
    <flow id="flow_91" type="truck" begin="0" end="3600" from="e_w_to_1_0" to="e_1_1_to_e" vehsPerHour="22" departLane="best" departSpeed="max" departPos="base"/>
    <flow id="flow_92" type="motorcycle" begin="0" end="3600" from="e_w_to_1_0" to="e_1_1_to_n" vehsPerHour="73" departLane="best" departSpeed="max" departPos="base"/>
    <flow id="flow_93" type="car" begin="0" end="3600" from="e_w_to_1_0" to="e_1_1_to_n" vehsPerHour="21" departLane="best" departSpeed="max" departPos="base"/>
    <flow id="flow_94" type="bus" begin="0" end="3600" from="e_w_to_1_0" to="e_1_1_to_n" vehsPerHour="5" departLane="best" departSpeed="max" departPos="base"/>
    <flow id="flow_95" type="truck" begin="0" end="3600" from="e_w_to_1_0" to="e_1_1_to_n" vehsPerHour="5" departLane="best" departSpeed="max" departPos="base"/>
</routes>