<?xml version="1.0" encoding="UTF-8"?>

<!-- generated on 2025-12-02 22:25:51 by Eclipse SUMO netconvert Version 1.23.1
<netconvertConfiguration xmlns:xsi="http://www.w3.org/2001/XMLSchema-instance" xsi:noNamespaceSchemaLocation="http://sumo.dlr.de/xsd/netconvertConfiguration.xsd">

    <input>
        <node-files value="scenarios/2x2/2x2_vietnamese/network.nod.xml"/>
        <edge-files value="scenarios/2x2/2x2_vietnamese/network.edg.xml"/>
        <tllogic-files value="scenarios/2x2/2x2_vietnamese/tls_programs.tll.xml"/>
        <type-files value="scenarios/2x2/2x2_vietnamese/network.typ.xml"/>
    </input>

    <output>
        <output-file value="scenarios/2x2/2x2_vietnamese/network.net.xml"/>
    </output>

    <processing>
        <geometry.remove value="false"/>
        <roundabouts.guess value="false"/>
    </processing>

    <building_defaults>
        <default.lanenumber value="2"/>
        <default.lanewidth value="3.2"/>
    </building_defaults>

    <junctions>
        <junctions.join value="false"/>
        <junctions.corner-detail value="5"/>
    </junctions>

</netconvertConfiguration>
-->

<net version="1.20" junctionCornerDetail="5" limitTurnSpeed="5.50" xmlns:xsi="http://www.w3.org/2001/XMLSchema-instance" xsi:noNamespaceSchemaLocation="http://sumo.dlr.de/xsd/net_file.xsd">

    <location netOffset="200.00,200.00" convBoundary="0.00,0.00,600.00,600.00" origBoundary="-200.00,-200.00,400.00,400.00" projParameter="!"/>

    <type id="urban_road" priority="9" numLanes="2" speed="13.89" allow="passenger bus truck motorcycle" width="3.20"/>

    <edge id=":n_0_0_0" function="internal">
        <lane id=":n_0_0_0_0" index="0" allow="passenger bus truck motorcycle" speed="6.51" length="9.03" width="3.20" shape="195.20,210.40 194.85,207.95 193.80,206.20 192.05,205.15 189.60,204.80"/>
    </edge>
    <edge id=":n_0_0_1" function="internal">
        <lane id=":n_0_0_1_0" index="0" allow="passenger bus truck motorcycle" speed="13.89" length="20.80" width="3.20" shape="195.20,210.40 195.20,189.60"/>
        <lane id=":n_0_0_1_1" index="1" allow="passenger bus truck motorcycle" speed="13.89" length="20.80" width="3.20" shape="198.40,210.40 198.40,189.60"/>
    </edge>
    <edge id=":n_0_0_3" function="internal">
        <lane id=":n_0_0_3_0" index="0" allow="passenger bus truck motorcycle" speed="9.26" length="5.01" width="3.20" shape="198.40,210.40 199.11,205.44"/>
    </edge>
    <edge id=":n_0_0_4" function="internal">
        <lane id=":n_0_0_4_0" index="0" allow="passenger bus truck motorcycle" speed="3.65" length="1.44" width="3.20" shape="198.40,210.40 199.20,209.20"/>
    </edge>
    <edge id=":n_0_0_20" function="internal">
        <lane id=":n_0_0_20_0" index="0" allow="passenger bus truck motorcycle" speed="9.26" length="14.34" width="3.20" shape="199.11,205.44 199.15,205.15 201.40,201.40 205.15,199.15 210.40,198.40"/>
    </edge>
    <edge id=":n_0_0_21" function="internal">
        <lane id=":n_0_0_21_0" index="0" allow="passenger bus truck motorcycle" speed="3.65" length="3.23" width="3.20" shape="199.20,209.20 200.00,208.80 200.80,209.20 201.60,210.40"/>
    </edge>
    <edge id=":n_0_0_5" function="internal">
        <lane id=":n_0_0_5_0" index="0" allow="passenger bus truck motorcycle" speed="6.51" length="9.03" width="3.20" shape="210.40,204.80 207.95,205.15 206.20,206.20 205.15,207.95 204.80,210.40"/>
    </edge>
    <edge id=":n_0_0_6" function="internal">
        <lane id=":n_0_0_6_0" index="0" allow="passenger bus truck motorcycle" speed="13.89" length="20.80" width="3.20" shape="210.40,204.80 189.60,204.80"/>
        <lane id=":n_0_0_6_1" index="1" allow="passenger bus truck motorcycle" speed="13.89" length="20.80" width="3.20" shape="210.40,201.60 189.60,201.60"/>
    </edge>
    <edge id=":n_0_0_8" function="internal">
        <lane id=":n_0_0_8_0" index="0" allow="passenger bus truck motorcycle" speed="9.26" length="5.01" width="3.20" shape="210.40,201.60 205.44,200.89"/>
    </edge>
    <edge id=":n_0_0_9" function="internal">
        <lane id=":n_0_0_9_0" index="0" allow="passenger bus truck motorcycle" speed="3.65" length="1.44" width="3.20" shape="210.40,201.60 209.20,200.80"/>
    </edge>
    <edge id=":n_0_0_22" function="internal">
        <lane id=":n_0_0_22_0" index="0" allow="passenger bus truck motorcycle" speed="9.26" length="14.34" width="3.20" shape="205.44,200.89 205.15,200.85 201.40,198.60 199.15,194.85 198.40,189.60"/>
    </edge>
    <edge id=":n_0_0_23" function="internal">
        <lane id=":n_0_0_23_0" index="0" allow="passenger bus truck motorcycle" speed="3.65" length="3.23" width="3.20" shape="209.20,200.80 208.80,200.00 209.20,199.20 210.40,198.40"/>
    </edge>
    <edge id=":n_0_0_10" function="internal">
        <lane id=":n_0_0_10_0" index="0" allow="passenger bus truck motorcycle" speed="6.51" length="9.03" width="3.20" shape="204.80,189.60 205.15,192.05 206.20,193.80 207.95,194.85 210.40,195.20"/>
    </edge>
    <edge id=":n_0_0_11" function="internal">
        <lane id=":n_0_0_11_0" index="0" allow="passenger bus truck motorcycle" speed="13.89" length="20.80" width="3.20" shape="204.80,189.60 204.80,210.40"/>
        <lane id=":n_0_0_11_1" index="1" allow="passenger bus truck motorcycle" speed="13.89" length="20.80" width="3.20" shape="201.60,189.60 201.60,210.40"/>
    </edge>
    <edge id=":n_0_0_13" function="internal">
        <lane id=":n_0_0_13_0" index="0" allow="passenger bus truck motorcycle" speed="9.26" length="5.01" width="3.20" shape="201.60,189.60 200.89,194.56"/>
    </edge>
    <edge id=":n_0_0_14" function="internal">
        <lane id=":n_0_0_14_0" index="0" allow="passenger bus truck motorcycle" speed="3.65" length="1.44" width="3.20" shape="201.60,189.60 200.80,190.80"/>
    </edge>
    <edge id=":n_0_0_24" function="internal">
        <lane id=":n_0_0_24_0" index="0" allow="passenger bus truck motorcycle" speed="9.26" length="14.34" width="3.20" shape="200.89,194.56 200.85,194.85 198.60,198.60 194.85,200.85 189.60,201.60"/>
    </edge>
    <edge id=":n_0_0_25" function="internal">
        <lane id=":n_0_0_25_0" index="0" allow="passenger bus truck motorcycle" speed="3.65" length="3.23" width="3.20" shape="200.80,190.80 200.00,191.20 199.20,190.80 198.40,189.60"/>
    </edge>
    <edge id=":n_0_0_15" function="internal">
        <lane id=":n_0_0_15_0" index="0" allow="passenger bus truck motorcycle" speed="6.51" length="9.03" width="3.20" shape="189.60,195.20 192.05,194.85 193.80,193.80 194.85,192.05 195.20,189.60"/>
    </edge>
    <edge id=":n_0_0_16" function="internal">
        <lane id=":n_0_0_16_0" index="0" allow="passenger bus truck motorcycle" speed="13.89" length="20.80" width="3.20" shape="189.60,195.20 210.40,195.20"/>
        <lane id=":n_0_0_16_1" index="1" allow="passenger bus truck motorcycle" speed="13.89" length="20.80" width="3.20" shape="189.60,198.40 210.40,198.40"/>
    </edge>
    <edge id=":n_0_0_18" function="internal">
        <lane id=":n_0_0_18_0" index="0" allow="passenger bus truck motorcycle" speed="9.26" length="5.01" width="3.20" shape="189.60,198.40 194.56,199.11"/>
    </edge>
    <edge id=":n_0_0_19" function="internal">
        <lane id=":n_0_0_19_0" index="0" allow="passenger bus truck motorcycle" speed="3.65" length="1.44" width="3.20" shape="189.60,198.40 190.80,199.20"/>
    </edge>
    <edge id=":n_0_0_26" function="internal">
        <lane id=":n_0_0_26_0" index="0" allow="passenger bus truck motorcycle" speed="9.26" length="14.34" width="3.20" shape="194.56,199.11 194.85,199.15 198.60,201.40 200.85,205.15 201.60,210.40"/>
    </edge>
    <edge id=":n_0_0_27" function="internal">
        <lane id=":n_0_0_27_0" index="0" allow="passenger bus truck motorcycle" speed="3.65" length="3.23" width="3.20" shape="190.80,199.20 191.20,200.00 190.80,200.80 189.60,201.60"/>
    </edge>
    <edge id=":n_0_1_0" function="internal">
        <lane id=":n_0_1_0_0" index="0" allow="passenger bus truck motorcycle" speed="6.51" length="9.03" width="3.20" shape="395.20,210.40 394.85,207.95 393.80,206.20 392.05,205.15 389.60,204.80"/>
    </edge>
    <edge id=":n_0_1_1" function="internal">
        <lane id=":n_0_1_1_0" index="0" allow="passenger bus truck motorcycle" speed="13.89" length="20.80" width="3.20" shape="395.20,210.40 395.20,189.60"/>
        <lane id=":n_0_1_1_1" index="1" allow="passenger bus truck motorcycle" speed="13.89" length="20.80" width="3.20" shape="398.40,210.40 398.40,189.60"/>
    </edge>
    <edge id=":n_0_1_3" function="internal">
        <lane id=":n_0_1_3_0" index="0" allow="passenger bus truck motorcycle" speed="9.26" length="5.01" width="3.20" shape="398.40,210.40 399.11,205.44"/>
    </edge>
    <edge id=":n_0_1_4" function="internal">
        <lane id=":n_0_1_4_0" index="0" allow="passenger bus truck motorcycle" speed="3.65" length="1.44" width="3.20" shape="398.40,210.40 399.20,209.20"/>
    </edge>
    <edge id=":n_0_1_20" function="internal">
        <lane id=":n_0_1_20_0" index="0" allow="passenger bus truck motorcycle" speed="9.26" length="14.34" width="3.20" shape="399.11,205.44 399.15,205.15 401.40,201.40 405.15,199.15 410.40,198.40"/>
    </edge>
    <edge id=":n_0_1_21" function="internal">
        <lane id=":n_0_1_21_0" index="0" allow="passenger bus truck motorcycle" speed="3.65" length="3.23" width="3.20" shape="399.20,209.20 400.00,208.80 400.80,209.20 401.60,210.40"/>
    </edge>
    <edge id=":n_0_1_5" function="internal">
        <lane id=":n_0_1_5_0" index="0" allow="passenger bus truck motorcycle" speed="6.51" length="9.03" width="3.20" shape="410.40,204.80 407.95,205.15 406.20,206.20 405.15,207.95 404.80,210.40"/>
    </edge>
    <edge id=":n_0_1_6" function="internal">
        <lane id=":n_0_1_6_0" index="0" allow="passenger bus truck motorcycle" speed="13.89" length="20.80" width="3.20" shape="410.40,204.80 389.60,204.80"/>
        <lane id=":n_0_1_6_1" index="1" allow="passenger bus truck motorcycle" speed="13.89" length="20.80" width="3.20" shape="410.40,201.60 389.60,201.60"/>
    </edge>
    <edge id=":n_0_1_8" function="internal">
        <lane id=":n_0_1_8_0" index="0" allow="passenger bus truck motorcycle" speed="9.26" length="5.01" width="3.20" shape="410.40,201.60 405.44,200.89"/>
    </edge>
    <edge id=":n_0_1_9" function="internal">
        <lane id=":n_0_1_9_0" index="0" allow="passenger bus truck motorcycle" speed="3.65" length="1.44" width="3.20" shape="410.40,201.60 409.20,200.80"/>
    </edge>
    <edge id=":n_0_1_22" function="internal">
        <lane id=":n_0_1_22_0" index="0" allow="passenger bus truck motorcycle" speed="9.26" length="14.34" width="3.20" shape="405.44,200.89 405.15,200.85 401.40,198.60 399.15,194.85 398.40,189.60"/>
    </edge>
    <edge id=":n_0_1_23" function="internal">
        <lane id=":n_0_1_23_0" index="0" allow="passenger bus truck motorcycle" speed="3.65" length="3.23" width="3.20" shape="409.20,200.80 408.80,200.00 409.20,199.20 410.40,198.40"/>
    </edge>
    <edge id=":n_0_1_10" function="internal">
        <lane id=":n_0_1_10_0" index="0" allow="passenger bus truck motorcycle" speed="6.51" length="9.03" width="3.20" shape="404.80,189.60 405.15,192.05 406.20,193.80 407.95,194.85 410.40,195.20"/>
    </edge>
    <edge id=":n_0_1_11" function="internal">
        <lane id=":n_0_1_11_0" index="0" allow="passenger bus truck motorcycle" speed="13.89" length="20.80" width="3.20" shape="404.80,189.60 404.80,210.40"/>
        <lane id=":n_0_1_11_1" index="1" allow="passenger bus truck motorcycle" speed="13.89" length="20.80" width="3.20" shape="401.60,189.60 401.60,210.40"/>
    </edge>
    <edge id=":n_0_1_13" function="internal">
        <lane id=":n_0_1_13_0" index="0" allow="passenger bus truck motorcycle" speed="9.26" length="5.01" width="3.20" shape="401.60,189.60 400.89,194.56"/>
    </edge>
    <edge id=":n_0_1_14" function="internal">
        <lane id=":n_0_1_14_0" index="0" allow="passenger bus truck motorcycle" speed="3.65" length="1.44" width="3.20" shape="401.60,189.60 400.80,190.80"/>
    </edge>
    <edge id=":n_0_1_24" function="internal">
        <lane id=":n_0_1_24_0" index="0" allow="passenger bus truck motorcycle" speed="9.26" length="14.34" width="3.20" shape="400.89,194.56 400.85,194.85 398.60,198.60 394.85,200.85 389.60,201.60"/>
    </edge>
    <edge id=":n_0_1_25" function="internal">
        <lane id=":n_0_1_25_0" index="0" allow="passenger bus truck motorcycle" speed="3.65" length="3.23" width="3.20" shape="400.80,190.80 400.00,191.20 399.20,190.80 398.40,189.60"/>
    </edge>
    <edge id=":n_0_1_15" function="internal">
        <lane id=":n_0_1_15_0" index="0" allow="passenger bus truck motorcycle" speed="6.51" length="9.03" width="3.20" shape="389.60,195.20 392.05,194.85 393.80,193.80 394.85,192.05 395.20,189.60"/>
    </edge>
    <edge id=":n_0_1_16" function="internal">
        <lane id=":n_0_1_16_0" index="0" allow="passenger bus truck motorcycle" speed="13.89" length="20.80" width="3.20" shape="389.60,195.20 410.40,195.20"/>
        <lane id=":n_0_1_16_1" index="1" allow="passenger bus truck motorcycle" speed="13.89" length="20.80" width="3.20" shape="389.60,198.40 410.40,198.40"/>
    </edge>
    <edge id=":n_0_1_18" function="internal">
        <lane id=":n_0_1_18_0" index="0" allow="passenger bus truck motorcycle" speed="9.26" length="5.01" width="3.20" shape="389.60,198.40 394.56,199.11"/>
    </edge>
    <edge id=":n_0_1_19" function="internal">
        <lane id=":n_0_1_19_0" index="0" allow="passenger bus truck motorcycle" speed="3.65" length="1.44" width="3.20" shape="389.60,198.40 390.80,199.20"/>
    </edge>
    <edge id=":n_0_1_26" function="internal">
        <lane id=":n_0_1_26_0" index="0" allow="passenger bus truck motorcycle" speed="9.26" length="14.34" width="3.20" shape="394.56,199.11 394.85,199.15 398.60,201.40 400.85,205.15 401.60,210.40"/>
    </edge>
    <edge id=":n_0_1_27" function="internal">
        <lane id=":n_0_1_27_0" index="0" allow="passenger bus truck motorcycle" speed="3.65" length="3.23" width="3.20" shape="390.80,199.20 391.20,200.00 390.80,200.80 389.60,201.60"/>
    </edge>
    <edge id=":n_1_0_0" function="internal">
        <lane id=":n_1_0_0_0" index="0" allow="passenger bus truck motorcycle" speed="6.51" length="9.03" width="3.20" shape="195.20,410.40 194.85,407.95 193.80,406.20 192.05,405.15 189.60,404.80"/>
    </edge>
    <edge id=":n_1_0_1" function="internal">
        <lane id=":n_1_0_1_0" index="0" allow="passenger bus truck motorcycle" speed="13.89" length="20.80" width="3.20" shape="195.20,410.40 195.20,389.60"/>
        <lane id=":n_1_0_1_1" index="1" allow="passenger bus truck motorcycle" speed="13.89" length="20.80" width="3.20" shape="198.40,410.40 198.40,389.60"/>
    </edge>
    <edge id=":n_1_0_3" function="internal">
        <lane id=":n_1_0_3_0" index="0" allow="passenger bus truck motorcycle" speed="9.26" length="5.01" width="3.20" shape="198.40,410.40 199.11,405.44"/>
    </edge>
    <edge id=":n_1_0_4" function="internal">
        <lane id=":n_1_0_4_0" index="0" allow="passenger bus truck motorcycle" speed="3.65" length="1.44" width="3.20" shape="198.40,410.40 199.20,409.20"/>
    </edge>
    <edge id=":n_1_0_20" function="internal">
        <lane id=":n_1_0_20_0" index="0" allow="passenger bus truck motorcycle" speed="9.26" length="14.34" width="3.20" shape="199.11,405.44 199.15,405.15 201.40,401.40 205.15,399.15 210.40,398.40"/>
    </edge>
    <edge id=":n_1_0_21" function="internal">
        <lane id=":n_1_0_21_0" index="0" allow="passenger bus truck motorcycle" speed="3.65" length="3.23" width="3.20" shape="199.20,409.20 200.00,408.80 200.80,409.20 201.60,410.40"/>
    </edge>
    <edge id=":n_1_0_5" function="internal">
        <lane id=":n_1_0_5_0" index="0" allow="passenger bus truck motorcycle" speed="6.51" length="9.03" width="3.20" shape="210.40,404.80 207.95,405.15 206.20,406.20 205.15,407.95 204.80,410.40"/>
    </edge>
    <edge id=":n_1_0_6" function="internal">
        <lane id=":n_1_0_6_0" index="0" allow="passenger bus truck motorcycle" speed="13.89" length="20.80" width="3.20" shape="210.40,404.80 189.60,404.80"/>
        <lane id=":n_1_0_6_1" index="1" allow="passenger bus truck motorcycle" speed="13.89" length="20.80" width="3.20" shape="210.40,401.60 189.60,401.60"/>
    </edge>
    <edge id=":n_1_0_8" function="internal">
        <lane id=":n_1_0_8_0" index="0" allow="passenger bus truck motorcycle" speed="9.26" length="5.01" width="3.20" shape="210.40,401.60 205.44,400.89"/>
    </edge>
    <edge id=":n_1_0_9" function="internal">
        <lane id=":n_1_0_9_0" index="0" allow="passenger bus truck motorcycle" speed="3.65" length="1.44" width="3.20" shape="210.40,401.60 209.20,400.80"/>
    </edge>
    <edge id=":n_1_0_22" function="internal">
        <lane id=":n_1_0_22_0" index="0" allow="passenger bus truck motorcycle" speed="9.26" length="14.34" width="3.20" shape="205.44,400.89 205.15,400.85 201.40,398.60 199.15,394.85 198.40,389.60"/>
    </edge>
    <edge id=":n_1_0_23" function="internal">
        <lane id=":n_1_0_23_0" index="0" allow="passenger bus truck motorcycle" speed="3.65" length="3.23" width="3.20" shape="209.20,400.80 208.80,400.00 209.20,399.20 210.40,398.40"/>
    </edge>
    <edge id=":n_1_0_10" function="internal">
        <lane id=":n_1_0_10_0" index="0" allow="passenger bus truck motorcycle" speed="6.51" length="9.03" width="3.20" shape="204.80,389.60 205.15,392.05 206.20,393.80 207.95,394.85 210.40,395.20"/>
    </edge>
    <edge id=":n_1_0_11" function="internal">
        <lane id=":n_1_0_11_0" index="0" allow="passenger bus truck motorcycle" speed="13.89" length="20.80" width="3.20" shape="204.80,389.60 204.80,410.40"/>
        <lane id=":n_1_0_11_1" index="1" allow="passenger bus truck motorcycle" speed="13.89" length="20.80" width="3.20" shape="201.60,389.60 201.60,410.40"/>
    </edge>
    <edge id=":n_1_0_13" function="internal">
        <lane id=":n_1_0_13_0" index="0" allow="passenger bus truck motorcycle" speed="9.26" length="5.01" width="3.20" shape="201.60,389.60 200.89,394.56"/>
    </edge>
    <edge id=":n_1_0_14" function="internal">
        <lane id=":n_1_0_14_0" index="0" allow="passenger bus truck motorcycle" speed="3.65" length="1.44" width="3.20" shape="201.60,389.60 200.80,390.80"/>
    </edge>
    <edge id=":n_1_0_24" function="internal">
        <lane id=":n_1_0_24_0" index="0" allow="passenger bus truck motorcycle" speed="9.26" length="14.34" width="3.20" shape="200.89,394.56 200.85,394.85 198.60,398.60 194.85,400.85 189.60,401.60"/>
    </edge>
    <edge id=":n_1_0_25" function="internal">
        <lane id=":n_1_0_25_0" index="0" allow="passenger bus truck motorcycle" speed="3.65" length="3.23" width="3.20" shape="200.80,390.80 200.00,391.20 199.20,390.80 198.40,389.60"/>
    </edge>
    <edge id=":n_1_0_15" function="internal">
        <lane id=":n_1_0_15_0" index="0" allow="passenger bus truck motorcycle" speed="6.51" length="9.03" width="3.20" shape="189.60,395.20 192.05,394.85 193.80,393.80 194.85,392.05 195.20,389.60"/>
    </edge>
    <edge id=":n_1_0_16" function="internal">
        <lane id=":n_1_0_16_0" index="0" allow="passenger bus truck motorcycle" speed="13.89" length="20.80" width="3.20" shape="189.60,395.20 210.40,395.20"/>
        <lane id=":n_1_0_16_1" index="1" allow="passenger bus truck motorcycle" speed="13.89" length="20.80" width="3.20" shape="189.60,398.40 210.40,398.40"/>
    </edge>
    <edge id=":n_1_0_18" function="internal">
        <lane id=":n_1_0_18_0" index="0" allow="passenger bus truck motorcycle" speed="9.26" length="5.01" width="3.20" shape="189.60,398.40 194.56,399.11"/>
    </edge>
    <edge id=":n_1_0_19" function="internal">
        <lane id=":n_1_0_19_0" index="0" allow="passenger bus truck motorcycle" speed="3.65" length="1.44" width="3.20" shape="189.60,398.40 190.80,399.20"/>
    </edge>
    <edge id=":n_1_0_26" function="internal">
        <lane id=":n_1_0_26_0" index="0" allow="passenger bus truck motorcycle" speed="9.26" length="14.34" width="3.20" shape="194.56,399.11 194.85,399.15 198.60,401.40 200.85,405.15 201.60,410.40"/>
    </edge>
    <edge id=":n_1_0_27" function="internal">
        <lane id=":n_1_0_27_0" index="0" allow="passenger bus truck motorcycle" speed="3.65" length="3.23" width="3.20" shape="190.80,399.20 191.20,400.00 190.80,400.80 189.60,401.60"/>
    </edge>
    <edge id=":n_1_1_0" function="internal">
        <lane id=":n_1_1_0_0" index="0" allow="passenger bus truck motorcycle" speed="6.51" length="9.03" width="3.20" shape="395.20,410.40 394.85,407.95 393.80,406.20 392.05,405.15 389.60,404.80"/>
    </edge>
    <edge id=":n_1_1_1" function="internal">
        <lane id=":n_1_1_1_0" index="0" allow="passenger bus truck motorcycle" speed="13.89" length="20.80" width="3.20" shape="395.20,410.40 395.20,389.60"/>
        <lane id=":n_1_1_1_1" index="1" allow="passenger bus truck motorcycle" speed="13.89" length="20.80" width="3.20" shape="398.40,410.40 398.40,389.60"/>
    </edge>
    <edge id=":n_1_1_3" function="internal">
        <lane id=":n_1_1_3_0" index="0" allow="passenger bus truck motorcycle" speed="9.26" length="5.01" width="3.20" shape="398.40,410.40 399.11,405.44"/>
    </edge>
    <edge id=":n_1_1_4" function="internal">
        <lane id=":n_1_1_4_0" index="0" allow="passenger bus truck motorcycle" speed="3.65" length="1.44" width="3.20" shape="398.40,410.40 399.20,409.20"/>
    </edge>
    <edge id=":n_1_1_20" function="internal">
        <lane id=":n_1_1_20_0" index="0" allow="passenger bus truck motorcycle" speed="9.26" length="14.34" width="3.20" shape="399.11,405.44 399.15,405.15 401.40,401.40 405.15,399.15 410.40,398.40"/>
    </edge>
    <edge id=":n_1_1_21" function="internal">
        <lane id=":n_1_1_21_0" index="0" allow="passenger bus truck motorcycle" speed="3.65" length="3.23" width="3.20" shape="399.20,409.20 400.00,408.80 400.80,409.20 401.60,410.40"/>
    </edge>
    <edge id=":n_1_1_5" function="internal">
        <lane id=":n_1_1_5_0" index="0" allow="passenger bus truck motorcycle" speed="6.51" length="9.03" width="3.20" shape="410.40,404.80 407.95,405.15 406.20,406.20 405.15,407.95 404.80,410.40"/>
    </edge>
    <edge id=":n_1_1_6" function="internal">
        <lane id=":n_1_1_6_0" index="0" allow="passenger bus truck motorcycle" speed="13.89" length="20.80" width="3.20" shape="410.40,404.80 389.60,404.80"/>
        <lane id=":n_1_1_6_1" index="1" allow="passenger bus truck motorcycle" speed="13.89" length="20.80" width="3.20" shape="410.40,401.60 389.60,401.60"/>
    </edge>
    <edge id=":n_1_1_8" function="internal">
        <lane id=":n_1_1_8_0" index="0" allow="passenger bus truck motorcycle" speed="9.26" length="5.01" width="3.20" shape="410.40,401.60 405.44,400.89"/>
    </edge>
    <edge id=":n_1_1_9" function="internal">
        <lane id=":n_1_1_9_0" index="0" allow="passenger bus truck motorcycle" speed="3.65" length="1.44" width="3.20" shape="410.40,401.60 409.20,400.80"/>
    </edge>
    <edge id=":n_1_1_22" function="internal">
        <lane id=":n_1_1_22_0" index="0" allow="passenger bus truck motorcycle" speed="9.26" length="14.34" width="3.20" shape="405.44,400.89 405.15,400.85 401.40,398.60 399.15,394.85 398.40,389.60"/>
    </edge>
    <edge id=":n_1_1_23" function="internal">
        <lane id=":n_1_1_23_0" index="0" allow="passenger bus truck motorcycle" speed="3.65" length="3.23" width="3.20" shape="409.20,400.80 408.80,400.00 409.20,399.20 410.40,398.40"/>
    </edge>
    <edge id=":n_1_1_10" function="internal">
        <lane id=":n_1_1_10_0" index="0" allow="passenger bus truck motorcycle" speed="6.51" length="9.03" width="3.20" shape="404.80,389.60 405.15,392.05 406.20,393.80 407.95,394.85 410.40,395.20"/>
    </edge>
    <edge id=":n_1_1_11" function="internal">
        <lane id=":n_1_1_11_0" index="0" allow="passenger bus truck motorcycle" speed="13.89" length="20.80" width="3.20" shape="404.80,389.60 404.80,410.40"/>
        <lane id=":n_1_1_11_1" index="1" allow="passenger bus truck motorcycle" speed="13.89" length="20.80" width="3.20" shape="401.60,389.60 401.60,410.40"/>
    </edge>
    <edge id=":n_1_1_13" function="internal">
        <lane id=":n_1_1_13_0" index="0" allow="passenger bus truck motorcycle" speed="9.26" length="5.01" width="3.20" shape="401.60,389.60 400.89,394.56"/>
    </edge>
    <edge id=":n_1_1_14" function="internal">
        <lane id=":n_1_1_14_0" index="0" allow="passenger bus truck motorcycle" speed="3.65" length="1.44" width="3.20" shape="401.60,389.60 400.80,390.80"/>
    </edge>
    <edge id=":n_1_1_24" function="internal">
        <lane id=":n_1_1_24_0" index="0" allow="passenger bus truck motorcycle" speed="9.26" length="14.34" width="3.20" shape="400.89,394.56 400.85,394.85 398.60,398.60 394.85,400.85 389.60,401.60"/>
    </edge>
    <edge id=":n_1_1_25" function="internal">
        <lane id=":n_1_1_25_0" index="0" allow="passenger bus truck motorcycle" speed="3.65" length="3.23" width="3.20" shape="400.80,390.80 400.00,391.20 399.20,390.80 398.40,389.60"/>
    </edge>
    <edge id=":n_1_1_15" function="internal">
        <lane id=":n_1_1_15_0" index="0" allow="passenger bus truck motorcycle" speed="6.51" length="9.03" width="3.20" shape="389.60,395.20 392.05,394.85 393.80,393.80 394.85,392.05 395.20,389.60"/>
    </edge>
    <edge id=":n_1_1_16" function="internal">
        <lane id=":n_1_1_16_0" index="0" allow="passenger bus truck motorcycle" speed="13.89" length="20.80" width="3.20" shape="389.60,395.20 410.40,395.20"/>
        <lane id=":n_1_1_16_1" index="1" allow="passenger bus truck motorcycle" speed="13.89" length="20.80" width="3.20" shape="389.60,398.40 410.40,398.40"/>
    </edge>
    <edge id=":n_1_1_18" function="internal">
        <lane id=":n_1_1_18_0" index="0" allow="passenger bus truck motorcycle" speed="9.26" length="5.01" width="3.20" shape="389.60,398.40 394.56,399.11"/>
    </edge>
    <edge id=":n_1_1_19" function="internal">
        <lane id=":n_1_1_19_0" index="0" allow="passenger bus truck motorcycle" speed="3.65" length="1.44" width="3.20" shape="389.60,398.40 390.80,399.20"/>
    </edge>
    <edge id=":n_1_1_26" function="internal">
        <lane id=":n_1_1_26_0" index="0" allow="passenger bus truck motorcycle" speed="9.26" length="14.34" width="3.20" shape="394.56,399.11 394.85,399.15 398.60,401.40 400.85,405.15 401.60,410.40"/>
    </edge>
    <edge id=":n_1_1_27" function="internal">
        <lane id=":n_1_1_27_0" index="0" allow="passenger bus truck motorcycle" speed="3.65" length="3.23" width="3.20" shape="390.80,399.20 391.20,400.00 390.80,400.80 389.60,401.60"/>
    </edge>
    <edge id=":n_east_0_0" function="internal">
        <lane id=":n_east_0_0_0" index="0" allow="passenger bus truck motorcycle" speed="3.65" length="4.67" width="3.20" shape="600.05,198.40 601.25,199.20 601.65,200.00 601.25,200.80 600.05,201.60"/>
    </edge>
    <edge id=":n_east_1_0" function="internal">
        <lane id=":n_east_1_0_0" index="0" allow="passenger bus truck motorcycle" speed="3.65" length="4.67" width="3.20" shape="600.05,398.40 601.25,399.20 601.65,400.00 601.25,400.80 600.05,401.60"/>
    </edge>
    <edge id=":n_north_0_0" function="internal">
        <lane id=":n_north_0_0_0" index="0" allow="passenger bus truck motorcycle" speed="3.65" length="4.67" width="3.20" shape="201.60,600.05 200.80,601.25 200.00,601.65 199.20,601.25 198.40,600.05"/>
    </edge>
    <edge id=":n_north_1_0" function="internal">
        <lane id=":n_north_1_0_0" index="0" allow="passenger bus truck motorcycle" speed="3.65" length="4.67" width="3.20" shape="401.60,600.05 400.80,601.25 400.00,601.65 399.20,601.25 398.40,600.05"/>
    </edge>
    <edge id=":n_south_0_0" function="internal">
        <lane id=":n_south_0_0_0" index="0" allow="passenger bus truck motorcycle" speed="3.65" length="4.67" width="3.20" shape="198.40,-0.05 199.20,-1.25 200.00,-1.65 200.80,-1.25 201.60,-0.05"/>
    </edge>
    <edge id=":n_south_1_0" function="internal">
        <lane id=":n_south_1_0_0" index="0" allow="passenger bus truck motorcycle" speed="3.65" length="4.67" width="3.20" shape="398.40,-0.05 399.20,-1.25 400.00,-1.65 400.80,-1.25 401.60,-0.05"/>
    </edge>
    <edge id=":n_west_0_0" function="internal">
        <lane id=":n_west_0_0_0" index="0" allow="passenger bus truck motorcycle" speed="3.65" length="4.67" width="3.20" shape="-0.05,201.60 -1.25,200.80 -1.65,200.00 -1.25,199.20 -0.05,198.40"/>
    </edge>
    <edge id=":n_west_1_0" function="internal">
        <lane id=":n_west_1_0_0" index="0" allow="passenger bus truck motorcycle" speed="3.65" length="4.67" width="3.20" shape="-0.05,401.60 -1.25,400.80 -1.65,400.00 -1.25,399.20 -0.05,398.40"/>
    </edge>

    <edge id="e_0_0_to_0_1" from="n_0_0" to="n_0_1" priority="9" type="urban_road" spreadType="center" shape="200.00,196.80 400.05,196.80">
        <lane id="e_0_0_to_0_1_0" index="0" allow="passenger bus truck motorcycle" speed="13.89" length="179.20" width="3.20" shape="210.40,195.20 389.60,195.20"/>
        <lane id="e_0_0_to_0_1_1" index="1" allow="passenger bus truck motorcycle" speed="13.89" length="179.20" width="3.20" shape="210.40,198.40 389.60,198.40"/>
    </edge>
    <edge id="e_0_0_to_1_0" from="n_0_0" to="n_1_0" priority="9" type="urban_road" spreadType="center" shape="203.20,200.00 203.20,400.05">
        <lane id="e_0_0_to_1_0_0" index="0" allow="passenger bus truck motorcycle" speed="13.89" length="179.20" width="3.20" shape="204.80,210.40 204.80,389.60"/>
        <lane id="e_0_0_to_1_0_1" index="1" allow="passenger bus truck motorcycle" speed="13.89" length="179.20" width="3.20" shape="201.60,210.40 201.60,389.60"/>
    </edge>
    <edge id="e_0_0_to_s" from="n_0_0" to="n_south_0" priority="9" type="urban_road" spreadType="center" shape="196.80,200.00 196.80,-0.05">
        <lane id="e_0_0_to_s_0" index="0" allow="passenger bus truck motorcycle" speed="13.89" length="189.65" width="3.20" shape="195.20,189.60 195.20,-0.05"/>