<?xml version="1.0" ?>
<routes>
    <include href="vehicle_types.add.xml"/>
    <flow id="flow_0" type="motorcycle" begin="0" end="900" from="e_n_to_3_0" to="e_2_3_to_e" vehsPerHour="14" departLane="best" departSpeed="max" departPos="base"/>
    <flow id="flow_1" type="car" begin="0" end="900" from="e_n_to_3_0" to="e_2_3_to_e" vehsPerHour="4" departLane="best" departSpeed="max" departPos="base"/>
    <flow id="flow_2" type="bus" begin="0" end="900" from="e_n_to_3_0" to="e_2_3_to_e" vehsPerHour="1" departLane="best" departSpeed="max" departPos="base"/>
    <flow id="flow_3" type="truck" begin="0" end="900" from="e_n_to_3_0" to="e_2_3_to_e" vehsPerHour="1" departLane="best" departSpeed="max" departPos="base"/>
    <flow id="flow_4" type="motorcycle" begin="0" end="900" from="e_n_to_3_0" to="e_0_0_to_s" vehsPerHour="45" departLane="best" departSpeed="max" departPos="base"/>
    <flow id="flow_5" type="car" begin="0" end="900" from="e_n_to_3_0" to="e_0_0_to_s" vehsPerHour="13" departLane="best" departSpeed="max" departPos="base"/>
    <flow id="flow_6" type="bus" begin="0" end="900" from="e_n_to_3_0" to="e_0_0_to_s" vehsPerHour="3" departLane="best" departSpeed="max" departPos="base"/>
    <flow id="flow_7" type="truck" begin="0" end="900" from="e_n_to_3_0" to="e_0_0_to_s" vehsPerHour="3" departLane="best" departSpeed="max" departPos="base"/>
    <flow id="flow_8" type="motorcycle" begin="0" end="900" from="e_n_to_3_0" to="e_2_0_to_w" vehsPerHour="10" departLane="best" departSpeed="max" departPos="base"/>
    <flow id="flow_9" type="car" begin="0" end="900" from="e_n_to_3_0" to="e_2_0_to_w" vehsPerHour="3" departLane="best" departSpeed="max" departPos="base"/>
    <flow id="flow_10" type="motorcycle" begin="0" end="900" from="e_n_to_3_1" to="e_2_3_to_e" vehsPerHour="14" departLane="best" departSpeed="max" departPos="base"/>
    <flow id="flow_11" type="car" begin="0" end="900" from="e_n_to_3_1" to="e_2_3_to_e" vehsPerHour="4" departLane="best" departSpeed="max" departPos="base"/>
    <flow id="flow_12" type="bus" begin="0" end="900" from="e_n_to_3_1" to="e_2_3_to_e" vehsPerHour="1" departLane="best" departSpeed="max" departPos="base"/>
    <flow id="flow_13" type="truck" begin="0" end="900" from="e_n_to_3_1" to="e_2_3_to_e" vehsPerHour="1" departLane="best" departSpeed="max" departPos="base"/>
    <flow id="flow_14" type="motorcycle" begin="0" end="900" from="e_n_to_3_1" to="e_0_1_to_s" vehsPerHour="45" departLane="best" departSpeed="max" departPos="base"/>
    <flow id="flow_15" type="car" begin="0" end="900" from="e_n_to_3_1" to="e_0_1_to_s" vehsPerHour="13" departLane="best" departSpeed="max" departPos="base"/>
    <flow id="flow_16" type="bus" begin="0" end="900" from="e_n_to_3_1" to="e_0_1_to_s" vehsPerHour="3" departLane="best" departSpeed="max" departPos="base"/>
    <flow id="flow_17" type="truck" begin="0" end="900" from="e_n_to_3_1" to="e_0_1_to_s" vehsPerHour="3" departLane="best" departSpeed="max" departPos="base"/>
    <flow id="flow_18" type="motorcycle" begin="0" end="900" from="e_n_to_3_1" to="e_2_0_to_w" vehsPerHour="10" departLane="best" departSpeed="max" departPos="base"/>
    <flow id="flow_19" type="car" begin="0" end="900" from="e_n_to_3_1" to="e_2_0_to_w" vehsPerHour="3" departLane="best" departSpeed="max" departPos="base"/>
    <flow id="flow_20" type="motorcycle" begin="0" end="900" from="e_n_to_3_2" to="e_2_3_to_e" vehsPerHour="14" departLane="best" departSpeed="max" departPos="base"/>
    <flow id="flow_21" type="car" begin="0" end="900" from="e_n_to_3_2" to="e_2_3_to_e" vehsPerHour="4" departLane="best" departSpeed="max" departPos="base"/>
    <flow id="flow_22" type="bus" begin="0" end="900" from="e_n_to_3_2" to="e_2_3_to_e" vehsPerHour="1" departLane="best" departSpeed="max" departPos="base"/>
    <flow id="flow_23" type="truck" begin="0" end="900" from="e_n_to_3_2" to="e_2_3_to_e" vehsPerHour="1" departLane="best" departSpeed="max" departPos="base"/>
    <flow id="flow_24" type="motorcycle" begin="0" end="900" from="e_n_to_3_2" to="e_0_2_to_s" vehsPerHour="45" departLane="best" departSpeed="max" departPos="base"/>
    <flow id="flow_25" type="car" begin="0" end="900" from="e_n_to_3_2" to="e_0_2_to_s" vehsPerHour="13" departLane="best" departSpeed="max" departPos="base"/>
    <flow id="flow_26" type="bus" begin="0" end="900" from="e_n_to_3_2" to="e_0_2_to_s" vehsPerHour="3" departLane="best" departSpeed="max" departPos="base"/>
    <flow id="flow_27" type="truck" begin="0" end="900" from="e_n_to_3_2" to="e_0_2_to_s" vehsPerHour="3" departLane="best" departSpeed="max" departPos="base"/>
    <flow id="flow_28" type="motorcycle" begin="0" end="900" from="e_n_to_3_2" to="e_2_0_to_w" vehsPerHour="10" departLane="best" departSpeed="max" departPos="base"/>
    <flow id="flow_29" type="car" begin="0" end="900" from="e_n_to_3_2" to="e_2_0_to_w" vehsPerHour="3" departLane="best" departSpeed="max" departPos="base"/>
    <flow id="flow_30" type="motorcycle" begin="0" end="900" from="e_n_to_3_3" to="e_2_3_to_e" vehsPerHour="14" departLane="best" departSpeed="max" departPos="base"/>
    <flow id="flow_31" type="car" begin="0" end="900" from="e_n_to_3_3" to="e_2_3_to_e" vehsPerHour="4" departLane="best" departSpeed="max" departPos="base"/>
    <flow id="flow_32" type="bus" begin="0" end="900" from="e_n_to_3_3" to="e_2_3_to_e" vehsPerHour="1" departLane="best" departSpeed="max" departPos="base"/>
    <flow id="flow_33" type="truck" begin="0" end="900" from="e_n_to_3_3" to="e_2_3_to_e" vehsPerHour="1" departLane="best" departSpeed="max" departPos="base"/>
    <flow id="flow_34" type="motorcycle" begin="0" end="900" from="e_n_to_3_3" to="e_0_3_to_s" vehsPerHour="45" departLane="best" departSpeed="max" departPos="base"/>
    <flow id="flow_35" type="car" begin="0" end="900" from="e_n_to_3_3" to="e_0_3_to_s" vehsPerHour="13" departLane="best" departSpeed="max" departPos="base"/>
    <flow id="flow_36" type="bus" begin="0" end="900" from="e_n_to_3_3" to="e_0_3_to_s" vehsPerHour="3" departLane="best" departSpeed="max" departPos="base"/>
    <flow id="flow_37" type="truck" begin="0" end="900" from="e_n_to_3_3" to="e_0_3_to_s" vehsPerHour="3" departLane="best" departSpeed="max" departPos="base"/>
    <flow id="flow_38" type="motorcycle" begin="0" end="900" from="e_n_to_3_3" to="e_2_0_to_w" vehsPerHour="10" departLane="best" departSpeed="max" departPos="base"/>
    <flow id="flow_39" type="car" begin="0" end="900" from="e_n_to_3_3" to="e_2_0_to_w" vehsPerHour="3" departLane="best" departSpeed="max" departPos="base"/>
    <flow id="flow_40" type="motorcycle" begin="0" end="900" from="e_s_to_0_0" to="e_2_0_to_w" vehsPerHour="14" departLane="best" departSpeed="max" departPos="base"/>
    <flow id="flow_41" type="car" begin="0" end="900" from="e_s_to_0_0" to="e_2_0_to_w" vehsPerHour="4" departLane="best" departSpeed="max" departPos="base"/>
    <flow id="flow_42" type="bus" begin="0" end="900" from="e_s_to_0_0" to="e_2_0_to_w" vehsPerHour="1" departLane="best" departSpeed="max" departPos="base"/>
    <flow id="flow_43" type="truck" begin="0" end="900" from="e_s_to_0_0" to="e_2_0_to_w" vehsPerHour="1" departLane="best" departSpeed="max" departPos="base"/>
    <flow id="flow_44" type="motorcycle" begin="0" end="900" from="e_s_to_0_0" to="e_3_0_to_n" vehsPerHour="45" departLane="best" departSpeed="max" departPos="base"/>
    <flow id="flow_45" type="car" begin="0" end="900" from="e_s_to_0_0" to="e_3_0_to_n" vehsPerHour="13" departLane="best" departSpeed="max" departPos="base"/>
    <flow id="flow_46" type="bus" begin="0" end="900" from="e_s_to_0_0" to="e_3_0_to_n" vehsPerHour="3" departLane="best" departSpeed="max" departPos="base"/>
    <flow id="flow_47" type="truck" begin="0" end="900" from="e_s_to_0_0" to="e_3_0_to_n" vehsPerHour="3" departLane="best" departSpeed="max" departPos="base"/>
    <flow id="flow_48" type="motorcycle" begin="0" end="900" from="e_s_to_0_0" to="e_2_3_to_e" vehsPerHour="10" departLane="best" departSpeed="max" departPos="base"/>
    <flow id="flow_49" type="car" begin="0" end="900" from="e_s_to_0_0" to="e_2_3_to_e" vehsPerHour="3" departLane="best" departSpeed="max" departPos="base"/>
    <flow id="flow_50" type="motorcycle" begin="0" end="900" from="e_s_to_0_1" to="e_2_0_to_w" vehsPerHour="14" departLane="best" departSpeed="max" departPos="base"/>
    <flow id="flow_51" type="car" begin="0" end="900" from="e_s_to_0_1" to="e_2_0_to_w" vehsPerHour="4" departLane="best" departSpeed="max" departPos="base"/>
    <flow id="flow_52" type="bus" begin="0" end="900" from="e_s_to_0_1" to="e_2_0_to_w" vehsPerHour="1" departLane="best" departSpeed="max" departPos="base"/>
    <flow id="flow_53" type="truck" begin="0" end="900" from="e_s_to_0_1" to="e_2_0_to_w" vehsPerHour="1" departLane="best" departSpeed="max" departPos="base"/>
    <flow id="flow_54" type="motorcycle" begin="0" end="900" from="e_s_to_0_1" to="e_3_1_to_n" vehsPerHour="45" departLane="best" departSpeed="max" departPos="base"/>
    <flow id="flow_55" type="car" begin="0" end="900" from="e_s_to_0_1" to="e_3_1_to_n" vehsPerHour="13" departLane="best" departSpeed="max" departPos="base"/>
    <flow id="flow_56" type="bus" begin="0" end="900" from="e_s_to_0_1" to="e_3_1_to_n" vehsPerHour="3" departLane="best" departSpeed="max" departPos="base"/>
    <flow id="flow_57" type="truck" begin="0" end="900" from="e_s_to_0_1" to="e_3_1_to_n" vehsPerHour="3" departLane="best" departSpeed="max" departPos="base"/>
    <flow id="flow_58" type="motorcycle" begin="0" end="900" from="e_s_to_0_1" to="e_2_3_to_e" vehsPerHour="10" departLane="best" departSpeed="max" departPos="base"/>
    <flow id="flow_59" type="car" begin="0" end="900" from="e_s_to_0_1" to="e_2_3_to_e" vehsPerHour="3" departLane="best" departSpeed="max" departPos="base"/>
    <flow id="flow_60" type="motorcycle" begin="0" end="900" from="e_s_to_0_2" to="e_2_0_to_w" vehsPerHour="14" departLane="best" departSpeed="max" departPos="base"/>
    <flow id="flow_61" type="car" begin="0" end="900" from="e_s_to_0_2" to="e_2_0_to_w" vehsPerHour="4" departLane="best" departSpeed="max" departPos="base"/>
    <flow id="flow_62" type="bus" begin="0" end="900" from="e_s_to_0_2" to="e_2_0_to_w" vehsPerHour="1" departLane="best" departSpeed="max" departPos="base"/>
    <flow id="flow_63" type="truck" begin="0" end="900" from="e_s_to_0_2" to="e_2_0_to_w" vehsPerHour="1" departLane="best" departSpeed="max" departPos="base"/>
    <flow id="flow_64" type="motorcycle" begin="0" end="900" from="e_s_to_0_2" to="e_3_2_to_n" vehsPerHour="45" departLane="best" departSpeed="max" departPos="base"/>
    <flow id="flow_65" type="car" begin="0" end="900" from="e_s_to_0_2" to="e_3_2_to_n" vehsPerHour="13" departLane="best" departSpeed="max" departPos="base"/>
    <flow id="flow_66" type="bus" begin="0" end="900" from="e_s_to_0_2" to="e_3_2_to_n" vehsPerHour="3" departLane="best" departSpeed="max" departPos="base"/>
    <flow id="flow_67" type="truck" begin="0" end="900" from="e_s_to_0_2" to="e_3_2_to_n" vehsPerHour="3" departLane="best" departSpeed="max" departPos="base"/>
    <flow id="flow_68" type="motorcycle" begin="0" end="900" from="e_s_to_0_2" to="e_2_3_to_e" vehsPerHour="10" departLane="best" departSpeed="max" departPos="base"/>
    <flow id="flow_69" type="car" begin="0" end="900" from="e_s_to_0_2" to="e_2_3_to_e" vehsPerHour="3" departLane="best" departSpeed="max" departPos="base"/>
    <flow id="flow_70" type="motorcycle" begin="0" end="900" from="e_s_to_0_3" to="e_2_0_to_w" vehsPerHour="14" departLane="best" departSpeed="max" departPos="base"/>
    <flow id="flow_71" type="car" begin="0" end="900" from="e_s_to_0_3" to="e_2_0_to_w" vehsPerHour="4" departLane="best" departSpeed="max" departPos="base"/>
    <flow id="flow_72" type="bus" begin="0" end="900" from="e_s_to_0_3" to="e_2_0_to_w" vehsPerHour="1" departLane="best" departSpeed="max" departPos="base"/>
    <flow id="flow_73" type="truck" begin="0" end="900" from="e_s_to_0_3" to="e_2_0_to_w" vehsPerHour="1" departLane="best" departSpeed="max" departPos="base"/>
    <flow id="flow_74" type="motorcycle" begin="0" end="900" from="e_s_to_0_3" to="e_3_3_to_n" vehsPerHour="45" departLane="best" departSpeed="max" departPos="base"/>
    <flow id="flow_75" type="car" begin="0" end="900" from="e_s_to_0_3" to="e_3_3_to_n" vehsPerHour="13" departLane="best" departSpeed="max" departPos="base"/>
    <flow id="flow_76" type="bus" begin="0" end="900" from="e_s_to_0_3" to="e_3_3_to_n" vehsPerHour="3" departLane="best" departSpeed="max" departPos="base"/>
    <flow id="flow_77" type="truck" begin="0" end="900" from="e_s_to_0_3" to="e_3_3_to_n" vehsPerHour="3" departLane="best" departSpeed="max" departPos="base"/>
    <flow id="flow_78" type="motorcycle" begin="0" end="900" from="e_s_to_0_3" to="e_2_3_to_e" vehsPerHour="10" departLane="best" departSpeed="max" departPos="base"/>
    <flow id="flow_79" type="car" begin="0" end="900" from="e_s_to_0_3" to="e_2_3_to_e" vehsPerHour="3" departLane="best" departSpeed="max" departPos="base"/>
    <flow id="flow_80" type="motorcycle" begin="0" end="900" from="e_e_to_0_3" to="e_3_2_to_n" vehsPerHour="31" departLane="best" departSpeed="max" departPos="base"/>
    <flow id="flow_81" type="car" begin="0" end="900" from="e_e_to_0_3" to="e_3_2_to_n" vehsPerHour="9" departLane="best" departSpeed="max" departPos="base"/>
    <flow id="flow_82" type="bus" begin="0" end="900" from="e_e_to_0_3" to="e_3_2_to_n" vehsPerHour="2" departLane="best" departSpeed="max" departPos="base"/>
    <flow id="flow_83" type="truck" begin="0" end="900" from="e_e_to_0_3" to="e_3_2_to_n" vehsPerHour="2" departLane="best" departSpeed="max" departPos="base"/>
    <flow id="flow_84" type="motorcycle" begin="0" end="900" from="e_e_to_0_3" to="e_0_0_to_w" vehsPerHour="102" departLane="best" departSpeed="max" departPos="base"/>
    <flow id="flow_85" type="car" begin="0" end="900" from="e_e_to_0_3" to="e_0_0_to_w" vehsPerHour="29" departLane="best" departSpeed="max" departPos="base"/>
    <flow id="flow_86" type="bus" begin="0" end="900" from="e_e_to_0_3" to="e_0_0_to_w" vehsPerHour="7" departLane="best" departSpeed="max" departPos="base"/>
    <flow id="flow_87" type="truck" begin="0" end="900" from="e_e_to_0_3" to="e_0_0_to_w" vehsPerHour="7" departLane="best" departSpeed="max" departPos="base"/>
    <flow id="flow_88" type="motorcycle" begin="0" end="900" from="e_e_to_0_3" to="e_0_2_to_s" vehsPerHour="23" departLane="best" departSpeed="max" departPos="base"/>
    <flow id="flow_89" type="car" begin="0" end="900" from="e_e_to_0_3" to="e_0_2_to_s" vehsPerHour="6" departLane="best" departSpeed="max" departPos="base"/>
    <flow id="flow_90" type="bus" begin="0" end="900" from="e_e_to_0_3" to="e_0_2_to_s" vehsPerHour="1" departLane="best" departSpeed="max" departPos="base"/>
    <flow id="flow_91" type="truck" begin="0" end="900" from="e_e_to_0_3" to="e_0_2_to_s" vehsPerHour="1" departLane="best" departSpeed="max" departPos="base"/>
    <flow id="flow_92" type="motorcycle" begin="0" end="900" from="e_e_to_1_3" to="e_3_2_to_n" vehsPerHour="31" departLane="best" departSpeed="max" departPos="base"/>
    <flow id="flow_93" type="car" begin="0" end="900" from="e_e_to_1_3" to="e_3_2_to_n" vehsPerHour="9" departLane="best" departSpeed="max" departPos="base"/>
    <flow id="flow_94" type="bus" begin="0" end="900" from="e_e_to_1_3" to="e_3_2_to_n" vehsPerHour="2" departLane="best" departSpeed="max" departPos="base"/>
    <flow id="flow_95" type="truck" begin="0" end="900" from="e_e_to_1_3" to="e_3_2_to_n" vehsPerHour="2" departLane="best" departSpeed="max" departPos="base"/>
    <flow id="flow_96" type="motorcycle" begin="0" end="900" from="e_e_to_1_3" to="e_1_0_to_w" vehsPerHour="102" departLane="best" departSpeed="max" departPos="base"/>
    <flow id="flow_97" type="car" begin="0" end="900" from="e_e_to_1_3" to="e_1_0_to_w" vehsPerHour="29" departLane="best" departSpeed="max" departPos="base"/>
    <flow id="flow_98" type="bus" begin="0" end="900" from="e_e_to_1_3" to="e_1_0_to_w" vehsPerHour="7" departLane="best" departSpeed="max" departPos="base"/>
    <flow id="flow_99" type="truck" begin="0" end="900" from="e_e_to_1_3" to="e_1_0_to_w" vehsPerHour="7" departLane="best" departSpeed="max" departPos="base"/>
    <flow id="flow_100" type="motorcycle" begin="0" end="900" from="e_e_to_1_3" to="e_0_2_to_s" vehsPerHour="23" departLane="best" departSpeed="max" departPos="base"/>
    <flow id="flow_101" type="car" begin="0" end="900" from="e_e_to_1_3" to="e_0_2_to_s" vehsPerHour="6" departLane="best" departSpeed="max" departPos="base"/>
    <flow id="flow_102" type="bus" begin="0" end="900" from="e_e_to_1_3" to="e_0_2_to_s" vehsPerHour="1" departLane="best" departSpeed="max" departPos="base"/>
    <flow id="flow_103" type="truck" begin="0" end="900" from="e_e_to_1_3" to="e_0_2_to_s" vehsPerHour="1" departLane="best" departSpeed="max" departPos="base"/>
    <flow id="flow_104" type="motorcycle" begin="0" end="900" from="e_e_to_2_3" to="e_3_2_to_n" vehsPerHour="31" departLane="best" departSpeed="max" departPos="base"/>
    <flow id="flow_105" type="car" begin="0" end="900" from="e_e_to_2_3" to="e_3_2_to_n" vehsPerHour="9" departLane="best" departSpeed="max" departPos="base"/>
    <flow id="flow_106" type="bus" begin="0" end="900" from="e_e_to_2_3" to="e_3_2_to_n" vehsPerHour="2" departLane="best" departSpeed="max" departPos="base"/>
    <flow id="flow_107" type="truck" begin="0" end="900" from="e_e_to_2_3" to="e_3_2_to_n" vehsPerHour="2" departLane="best" departSpeed="max" departPos="base"/>
    <flow id="flow_108" type="motorcycle" begin="0" end="900" from="e_e_to_2_3" to="e_2_0_to_w" vehsPerHour="102" departLane="best" departSpeed="max" departPos="base"/>
    <flow id="flow_109" type="car" begin="0" end="900" from="e_e_to_2_3" to="e_2_0_to_w" vehsPerHour="29" departLane="best" departSpeed="max" departPos="base"/>
    <flow id="flow_110" type="bus" begin="0" end="900" from="e_e_to_2_3" to="e_2_0_to_w" vehsPerHour="7" departLane="best" departSpeed="max" departPos="base"/>
    <flow id="flow_111" type="truck" begin="0" end="900" from="e_e_to_2_3" to="e_2_0_to_w" vehsPerHour="7" departLane="best" departSpeed="max" departPos="base"/>
    <flow id="flow_112" type="motorcycle" begin="0" end="900" from="e_e_to_2_3" to="e_0_2_to_s" vehsPerHour="23" departLane="best" departSpeed="max" departPos="base"/>
    <flow id="flow_113" type="car" begin="0" end="900" from="e_e_to_2_3" to="e_0_2_to_s" vehsPerHour="6" departLane="best" departSpeed="max" departPos="base"/>
    <flow id="flow_114" type="bus" begin="0" end="900" from="e_e_to_2_3" to="e_0_2_to_s" vehsPerHour="1" departLane="best" departSpeed="max" departPos="base"/>
    <flow id="flow_115" type="truck" begin="0" end="900" from="e_e_to_2_3" to="e_0_2_to_s" vehsPerHour="1" departLane="best" departSpeed="max" departPos="base"/>
    <flow id="flow_116" type="motorcycle" begin="0" end="900" from="e_e_to_3_3" to="e_3_2_to_n" vehsPerHour="31" departLane="best" departSpeed="max" departPos="base"/>
    <flow id="flow_117" type="car" begin="0" end="900" from="e_e_to_3_3" to="e_3_2_to_n" vehsPerHour="9" departLane="best" departSpeed="max" departPos="base"/>
    <flow id="flow_118" type="bus" begin="0" end="900" from="e_e_to_3_3" to="e_3_2_to_n" vehsPerHour="2" departLane="best" departSpeed="max" departPos="base"/>
    <flow id="flow_119" type="truck" begin="0" end="900" from="e_e_to_3_3" to="e_3_2_to_n" vehsPerHour="2" departLane="best" departSpeed="max" departPos="base"/>
    <flow id="flow_120" type="motorcycle" begin="0" end="900" from="e_e_to_3_3" to="e_3_0_to_w" vehsPerHour="102" departLane="best" departSpeed="max" departPos="base"/>
    <flow id="flow_121" type="car" begin="0" end="900" from="e_e_to_3_3" to="e_3_0_to_w" vehsPerHour="29" departLane="best" departSpeed="max" departPos="base"/>
    <flow id="flow_122" type="bus" begin="0" end="900" from="e_e_to_3_3" to="e_3_0_to_w" vehsPerHour="7" departLane="best" departSpeed="max" departPos="base"/>
    <flow id="flow_123" type="truck" begin="0" end="900" from="e_e_to_3_3" to="e_3_0_to_w" vehsPerHour="7" departLane="best" departSpeed="max" departPos="base"/>
    <flow id="flow_124" type="motorcycle" begin="0" end="900" from="e_e_to_3_3" to="e_0_2_to_s" vehsPerHour="23" departLane="best" departSpeed="max" departPos="base"/>
    <flow id="flow_125" type="car" begin="0" end="900" from="e_e_to_3_3" to="e_0_2_to_s" vehsPerHour="6" departLane="best" departSpeed="max" departPos="base"/>
    <flow id="flow_126" type="bus" begin="0" end="900" from="e_e_to_3_3" to="e_0_2_to_s" vehsPerHour="1" departLane="best" departSpeed="max" departPos="base"/>
    <flow id="flow_127" type="truck" begin="0" end="900" from="e_e_to_3_3" to="e_0_2_to_s" vehsPerHour="1" departLane="best" departSpeed="max" departPos="base"/>
    <flow id="flow_128" type="motorcycle" begin="0" end="900" from="e_w_to_0_0" to="e_0_2_to_s" vehsPerHour="31" departLane="best" departSpeed="max" departPos="base"/>
    <flow id="flow_129" type="car" begin="0" end="900" from="e_w_to_0_0" to="e_0_2_to_s" vehsPerHour="9" departLane="best" departSpeed="max" departPos="base"/>
    <flow id="flow_130" type="bus" begin="0" end="900" from="e_w_to_0_0" to="e_0_2_to_s" vehsPerHour="2" departLane="best" departSpeed="max" departPos="base"/>
    <flow id="flow_131" type="truck" begin="0" end="900" from="e_w_to_0_0" to="e_0_2_to_s" vehsPerHour="2" departLane="best" departSpeed="max" departPos="base"/>
    <flow id="flow_132" type="motorcycle" begin="0" end="900" from="e_w_to_0_0" to="e_0_3_to_e" vehsPerHour="102" departLane="best" departSpeed="max" departPos="base"/>
    <flow id="flow_133" type="car" begin="0" end="900" from="e_w_to_0_0" to="e_0_3_to_e" vehsPerHour="29" departLane="best" departSpeed="max" departPos="base"/>
    <flow id="flow_134" type="bus" begin="0" end="900" from="e_w_to_0_0" to="e_0_3_to_e" vehsPerHour="7" departLane="best" departSpeed="max" departPos="base"/>
    <flow id="flow_135" type="truck" begin="0" end="900" from="e_w_to_0_0" to="e_0_3_to_e" vehsPerHour="7" departLane="best" departSpeed="max" departPos="base"/>
    <flow id="flow_136" type="motorcycle" begin="0" end="900" from="e_w_to_0_0" to="e_3_2_to_n" vehsPerHour="23" departLane="best" departSpeed="max" departPos="base"/>
    <flow id="flow_137" type="car" begin="0" end="900" from="e_w_to_0_0" to="e_3_2_to_n" vehsPerHour="6" departLane="best" departSpeed="max" departPos="base"/>
    <flow id="flow_138" type="bus" begin="0" end="900" from="e_w_to_0_0" to="e_3_2_to_n" vehsPerHour="1" departLane="best" departSpeed="max" departPos="base"/>
    <flow id="flow_139" type="truck" begin="0" end="900" from="e_w_to_0_0" to="e_3_2_to_n" vehsPerHour="1" departLane="best" departSpeed="max" departPos="base"/>
    <flow id="flow_140" type="motorcycle" begin="0" end="900" from="e_w_to_1_0" to="e_0_2_to_s" vehsPerHour="31" departLane="best" departSpeed="max" departPos="base"/>
    <flow id="flow_141" type="car" begin="0" end="900" from="e_w_to_1_0" to="e_0_2_to_s" vehsPerHour="9" departLane="best" departSpeed="max" departPos="base"/>
    <flow id="flow_142" type="bus" begin="0" end="900" from="e_w_to_1_0" to="e_0_2_to_s" vehsPerHour="2" departLane="best" departSpeed="max" departPos="base"/>
    <flow id="flow_143" type="truck" begin="0" end="900" from="e_w_to_1_0" to="e_0_2_to_s" vehsPerHour="2" departLane="best" departSpeed="max" departPos="base"/>
    <flow id="flow_144" type="motorcycle" begin="0" end="900" from="e_w_to_1_0" to="e_1_3_to_e" vehsPerHour="102" departLane="best" departSpeed="max" departPos="base"/>
    <flow id="flow_145" type="car" begin="0" end="900" from="e_w_to_1_0" to="e_1_3_to_e" vehsPerHour="29" departLane="best" departSpeed="max" departPos="base"/>
    <flow id="flow_146" type="bus" begin="0" end="900" from="e_w_to_1_0" to="e_1_3_to_e" vehsPerHour="7" departLane="best" departSpeed="max" departPos="base"/>
    <flow id="flow_147" type="truck" begin="0" end="900" from="e_w_to_1_0" to="e_1_3_to_e" vehsPerHour="7" departLane="best" departSpeed="max" departPos="base"/>
    <flow id="flow_148" type="motorcycle" begin="0" end="900" from="e_w_to_1_0" to="e_3_2_to_n" vehsPerHour="23" departLane="best" departSpeed="max" departPos="base"/>
    <flow id="flow_149" type="car" begin="0" end="900" from="e_w_to_1_0" to="e_3_2_to_n" vehsPerHour="6" departLane="best" departSpeed="max" departPos="base"/>
    <flow id="flow_150" type="bus" begin="0" end="900" from="e_w_to_1_0" to="e_3_2_to_n" vehsPerHour="1" departLane="best" departSpeed="max" departPos="base"/>
    <flow id="flow_151" type="truck" begin="0" end="900" from="e_w_to_1_0" to="e_3_2_to_n" vehsPerHour="1" departLane="best" departSpeed="max" departPos="base"/>
    <flow id="flow_152" type="motorcycle" begin="0" end="900" from="e_w_to_2_0" to="e_0_2_to_s" vehsPerHour="31" departLane="best" departSpeed="max" departPos="base"/>
    <flow id="flow_153" type="car" begin="0" end="900" from="e_w_to_2_0" to="e_0_2_to_s" vehsPerHour="9" departLane="best" departSpeed="max" departPos="base"/>
    <flow id="flow_154" type="bus" begin="0" end="900" from="e_w_to_2_0" to="e_0_2_to_s" vehsPerHour="2" departLane="best" departSpeed="max" departPos="base"/>
    <flow id="flow_155" type="truck" begin="0" end="900" from="e_w_to_2_0" to="e_0_2_to_s" vehsPerHour="2" departLane="best" departSpeed="max" departPos="base"/>
    <flow id="flow_156" type="motorcycle" begin="0" end="900" from="e_w_to_2_0" to="e_2_3_to_e" vehsPerHour="102" departLane="best" departSpeed="max" departPos="base"/>
    <flow id="flow_157" type="car" begin="0" end="900" from="e_w_to_2_0" to="e_2_3_to_e" vehsPerHour="29" departLane="best" departSpeed="max" departPos="base"/>
    <flow id="flow_158" type="bus" begin="0" end="900" from="e_w_to_2_0" to="e_2_3_to_e" vehsPerHour="7" departLane="best" departSpeed="max" departPos="base"/>
    <flow id="flow_159" type="truck" begin="0" end="900" from="e_w_to_2_0" to="e_2_3_to_e" vehsPerHour="7" departLane="best" departSpeed="max" departPos="base"/>
    <flow id="flow_160" type="motorcycle" begin="0" end="900" from="e_w_to_2_0" to="e_3_2_to_n" vehsPerHour="23" departLane="best" departSpeed="max" departPos="base"/>
    <flow id="flow_161" type="car" begin="0" end="900" from="e_w_to_2_0" to="e_3_2_to_n" vehsPerHour="6" departLane="best" departSpeed="max" departPos="base"/>
    <flow id="flow_162" type="bus" begin="0" end="900" from="e_w_to_2_0" to="e_3_2_to_n" vehsPerHour="1" departLane="best" departSpeed="max" departPos="base"/>
    <flow id="flow_163" type="truck" begin="0" end="900" from="e_w_to_2_0" to="e_3_2_to_n" vehsPerHour="1" departLane="best" departSpeed="max" departPos="base"/>
    <flow id="flow_164" type="motorcycle" begin="0" end="900" from="e_w_to_3_0" to="e_0_2_to_s" vehsPerHour="31" departLane="best" departSpeed="max" departPos="base"/>
    <flow id="flow_165" type="car" begin="0" end="900" from="e_w_to_3_0" to="e_0_2_to_s" vehsPerHour="9" departLane="best" departSpeed="max" departPos="base"/>
    <flow id="flow_166" type="bus" begin="0" end="900" from="e_w_to_3_0" to="e_0_2_to_s" vehsPerHour="2" departLane="best" departSpeed="max" departPos="base"/>
    <flow id="flow_167" type="truck" begin="0" end="900" from="e_w_to_3_0" to="e_0_2_to_s" vehsPerHour="2" departLane="best" departSpeed="max" departPos="base"/>
    <flow id="flow_168" type="motorcycle" begin="0" end="900" from="e_w_to_3_0" to="e_3_3_to_e" vehsPerHour="102" departLane="best" departSpeed="max" departPos="base"/>
    <flow id="flow_169" type="car" begin="0" end="900" from="e_w_to_3_0" to="e_3_3_to_e" vehsPerHour="29" departLane="best" departSpeed="max" departPos="base"/>
    <flow id="flow_170" type="bus" begin="0" end="900" from="e_w_to_3_0" to="e_3_3_to_e" vehsPerHour="7" departLane="best" departSpeed="max" departPos="base"/>
    <flow id="flow_171" type="truck" begin="0" end="900" from="e_w_to_3_0" to="e_3_3_to_e" vehsPerHour="7" departLane="best" departSpeed="max" departPos="base"/>
    <flow id="flow_172" type="motorcycle" begin="0" end="900" from="e_w_to_3_0" to="e_3_2_to_n" vehsPerHour="23" departLane="best" departSpeed="max" departPos="base"/>
    <flow id="flow_173" type="car" begin="0" end="900" from="e_w_to_3_0" to="e_3_2_to_n" vehsPerHour="6" departLane="best" departSpeed="max" departPos="base"/>
    <flow id="flow_174" type="bus" begin="0" end="900" from="e_w_to_3_0" to="e_3_2_to_n" vehsPerHour="1" departLane="best" departSpeed="max" departPos="base"/>
    <flow id="flow_175" type="truck" begin="0" end="900" from="e_w_to_3_0" to="e_3_2_to_n" vehsPerHour="1" departLane="best" departSpeed="max" departPos="base"/>
    <flow id="flow_176" type="motorcycle" begin="900" end="1800" from="e_n_to_3_0" to="e_2_3_to_e" vehsPerHour="21" departLane="best" departSpeed="max" departPos="base"/>
    <flow id="flow_177" type="car" begin="900" end="1800" from="e_n_to_3_0" to="e_2_3_to_e" vehsPerHour="6" departLane="best" departSpeed="max" departPos="base"/>
    <flow id="flow_178" type="bus" begin="900" end="1800" from="e_n_to_3_0" to="e_2_3_to_e" vehsPerHour="1" departLane="best" departSpeed="max" departPos="base"/>
    <flow id="flow_179" type="truck" begin="900" end="1800" from="e_n_to_3_0" to="e_2_3_to_e" vehsPerHour="1" departLane="best" departSpeed="max" departPos="base"/>
    <flow id="flow_180" type="motorcycle" begin="900" end="1800" from="e_n_to_3_0" to="e_0_0_to_s" vehsPerHour="68" departLane="best" departSpeed="max" departPos="base"/>
    <flow id="flow_181" type="car" begin="900" end="1800" from="e_n_to_3_0" to="e_0_0_to_s" vehsPerHour="19" departLane="best" departSpeed="max" departPos="base"/>
    <flow id="flow_182" type="bus" begin="900" end="1800" from="e_n_to_3_0" to="e_0_0_to_s" vehsPerHour="4" departLane="best" departSpeed="max" departPos="base"/>
    <flow id="flow_183" type="truck" begin="900" end="1800" from="e_n_to_3_0" to="e_0_0_to_s" vehsPerHour="4" departLane="best" departSpeed="max" departPos="base"/>