<?xml version="1.0" ?>
<edges>
    <edge id="e_w_to_0_0" from="n_west_0" to="n_0_0" type="urban_road" spreadType="center"/>
    <edge id="e_0_0_to_w" from="n_0_0" to="n_west_0" type="urban_road" spreadType="center"/>
    <edge id="e_0_0_to_0_1" from="n_0_0" to="n_0_1" type="urban_road" spreadType="center"/>
    <edge id="e_0_1_to_0_0" from="n_0_1" to="n_0_0" type="urban_road" spreadType="center"/>
    <edge id="e_0_1_to_0_2" from="n_0_1" to="n_0_2" type="urban_road" spreadType="center"/>
    <edge id="e_0_2_to_0_1" from="n_0_2" to="n_0_1" type="urban_road" spreadType="center"/>
    <edge id="e_0_2_to_0_3" from="n_0_2" to="n_0_3" type="urban_road" spreadType="center"/>
    <edge id="e_0_3_to_0_2" from="n_0_3" to="n_0_2" type="urban_road" spreadType="center"/>
    <edge id="e_0_3_to_e" from="n_0_3" to="n_east_0" type="urban_road" spreadType="center"/>
    <edge id="e_e_to_0_3" from="n_east_0" to="n_0_3" type="urban_road" spreadType="center"/>
    <edge id="e_w_to_1_0" from="n_west_1" to="n_1_0" type="urban_road" spreadType="center"/>
    <edge id="e_1_0_to_w" from="n_1_0" to="n_west_1" type="urban_road" spreadType="center"/>
    <edge id="e_1_0_to_1_1" from="n_1_0" to="n_1_1" type="urban_road" spreadType="center"/>
    <edge id="e_1_1_to_1_0" from="n_1_1" to="n_1_0" type="urban_road" spreadType="center"/>
    <edge id="e_1_1_to_1_2" from="n_1_1" to="n_1_2" type="urban_road" spreadType="center"/>
    <edge id="e_1_2_to_1_1" from="n_1_2" to="n_1_1" type="urban_road" spreadType="center"/>
    <edge id="e_1_2_to_1_3" from="n_1_2" to="n_1_3" type="urban_road" spreadType="center"/>
    <edge id="e_1_3_to_1_2" from="n_1_3" to="n_1_2" type="urban_road" spreadType="center"/>
    <edge id="e_1_3_to_e" from="n_1_3" to="n_east_1" type="urban_road" spreadType="center"/>
    <edge id="e_e_to_1_3" from="n_east_1" to="n_1_3" type="urban_road" spreadType="center"/>
    <edge id="e_w_to_2_0" from="n_west_2" to="n_2_0" type="urban_road" spreadType="center"/>
    <edge id="e_2_0_to_w" from="n_2_0" to="n_west_2" type="urban_road" spreadType="center"/>
    <edge id="e_2_0_to_2_1" from="n_2_0" to="n_2_1" type="urban_road" spreadType="center"/>
    <edge id="e_2_1_to_2_0" from="n_2_1" to="n_2_0" type="urban_road" spreadType="center"/>
    <edge id="e_2_1_to_2_2" from="n_2_1" to="n_2_2" type="urban_road" spreadType="center"/>
    <edge id="e_2_2_to_2_1" from="n_2_2" to="n_2_1" type="urban_road" spreadType="center"/>
    <edge id="e_2_2_to_2_3" from="n_2_2" to="n_2_3" type="urban_road" spreadType="center"/>
    <edge id="e_2_3_to_2_2" from="n_2_3" to="n_2_2" type="urban_road" spreadType="center"/>
    <edge id="e_2_3_to_e" from="n_2_3" to="n_east_2" type="urban_road" spreadType="center"/>
    <edge id="e_e_to_2_3" from="n_east_2" to="n_2_3" type="urban_road" spreadType="center"/>
    <edge id="e_w_to_3_0" from="n_west_3" to="n_3_0" type="urban_road" spreadType="center"/>
    <edge id="e_3_0_to_w" from="n_3_0" to="n_west_3" type="urban_road" spreadType="center"/>
    <edge id="e_3_0_to_3_1" from="n_3_0" to="n_3_1" type="urban_road" spreadType="center"/>
    <edge id="e_3_1_to_3_0" from="n_3_1" to="n_3_0" type="urban_road" spreadType="center"/>
    <edge id="e_3_1_to_3_2" from="n_3_1" to="n_3_2" type="urban_road" spreadType="center"/>
    <edge id="e_3_2_to_3_1" from="n_3_2" to="n_3_1" type="urban_road" spreadType="center"/>
    <edge id="e_3_2_to_3_3" from="n_3_2" to="n_3_3" type="urban_road" spreadType="center"/>
    <edge id="e_3_3_to_3_2" from="n_3_3" to="n_3_2" type="urban_road" spreadType="center"/>
    <edge id="e_3_3_to_e" from="n_3_3" to="n_east_3" type="urban_road" spreadType="center"/>
    <edge id="e_e_to_3_3" from="n_east_3" to="n_3_3" type="urban_road" spreadType="center"/>
    <edge id="e_s_to_0_0" from="n_south_0" to="n_0_0" type="urban_road" spreadType="center"/>
    <edge id="e_0_0_to_s" from="n_0_0" to="n_south_0" type="urban_road" spreadType="center"/>
    <edge id="e_0_0_to_1_0" from="n_0_0" to="n_1_0" type="urban_road" spreadType="center"/>
    <edge id="e_1_0_to_0_0" from="n_1_0" to="n_0_0" type="urban_road" spreadType="center"/>
    <edge id="e_1_0_to_2_0" from="n_1_0" to="n_2_0" type="urban_road" spreadType="center"/>
    <edge id="e_2_0_to_1_0" from="n_2_0" to="n_1_0" type="urban_road" spreadType="center"/>
    <edge id="e_2_0_to_3_0" from="n_2_0" to="n_3_0" type="urban_road" spreadType="center"/>
    <edge id="e_3_0_to_2_0" from="n_3_0" to="n_2_0" type="urban_road" spreadType="center"/>
    <edge id="e_3_0_to_n" from="n_3_0" to="n_north_0" type="urban_road" spreadType="center"/>
    <edge id="e_n_to_3_0" from="n_north_0" to="n_3_0" type="urban_road" spreadType="center"/>
    <edge id="e_s_to_0_1" from="n_south_1" to="n_0_1" type="urban_road" spreadType="center"/>
    <edge id="e_0_1_to_s" from="n_0_1" to="n_south_1" type="urban_road" spreadType="center"/>
    <edge id="e_0_1_to_1_1" from="n_0_1" to="n_1_1" type="urban_road" spreadType="center"/>
    <edge id="e_1_1_to_0_1" from="n_1_1" to="n_0_1" type="urban_road" spreadType="center"/>
    <edge id="e_1_1_to_2_1" from="n_1_1" to="n_2_1" type="urban_road" spreadType="center"/>
    <edge id="e_2_1_to_1_1" from="n_2_1" to="n_1_1" type="urban_road" spreadType="center"/>
    <edge id="e_2_1_to_3_1" from="n_2_1" to="n_3_1" type="urban_road" spreadType="center"/>
    <edge id="e_3_1_to_2_1" from="n_3_1" to="n_2_1" type="urban_road" spreadType="center"/>
    <edge id="e_3_1_to_n" from="n_3_1" to="n_north_1" type="urban_road" spreadType="center"/>
    <edge id="e_n_to_3_1" from="n_north_1" to="n_3_1" type="urban_road" spreadType="center"/>
    <edge id="e_s_to_0_2" from="n_south_2" to="n_0_2" type="urban_road" spreadType="center"/>
    <edge id="e_0_2_to_s" from="n_0_2" to="n_south_2" type="urban_road" spreadType="center"/>
    <edge id="e_0_2_to_1_2" from="n_0_2" to="n_1_2" type="urban_road" spreadType="center"/>
    <edge id="e_1_2_to_0_2" from="n_1_2" to="n_0_2" type="urban_road" spreadType="center"/>
    <edge id="e_1_2_to_2_2" from="n_1_2" to="n_2_2" type="urban_road" spreadType="center"/>
    <edge id="e_2_2_to_1_2" from="n_2_2" to="n_1_2" type="urban_road" spreadType="center"/>
    <edge id="e_2_2_to_3_2" from="n_2_2" to="n_3_2" type="urban_road" spreadType="center"/>
    <edge id="e_3_2_to_2_2" from="n_3_2" to="n_2_2" type="urban_road" spreadType="center"/>
    <edge id="e_3_2_to_n" from="n_3_2" to="n_north_2" type="urban_road" spreadType="center"/>
    <edge id="e_n_to_3_2" from="n_north_2" to="n_3_2" type="urban_road" spreadType="center"/>
    <edge id="e_s_to_0_3" from="n_south_3" to="n_0_3" type="urban_road" spreadType="center"/>
    <edge id="e_0_3_to_s" from="n_0_3" to="n_south_3" type="urban_road" spreadType="center"/>
    <edge id="e_0_3_to_1_3" from="n_0_3" to="n_1_3" type="urban_road" spreadType="center"/>
    <edge id="e_1_3_to_0_3" from="n_1_3" to="n_0_3" type="urban_road" spreadType="center"/>
    <edge id="e_1_3_to_2_3" from="n_1_3" to="n_2_3" type="urban_road" spreadType="center"/>
    <edge id="e_2_3_to_1_3" from="n_2_3" to="n_1_3" type="urban_road" spreadType="center"/>
    <edge id="e_2_3_to_3_3" from="n_2_3" to="n_3_3" type="urban_road" spreadType="center"/>
    <edge id="e_3_3_to_2_3" from="n_3_3" to="n_2_3" type="urban_road" spreadType="center"/>
    <edge id="e_3_3_to_n" from="n_3_3" to="n_north_3" type="urban_road" spreadType="center"/>
    <edge id="e_n_to_3_3" from="n_north_3" to="n_3_3" type="urban_road" spreadType="center"/>
</edges>